* NGSPICE file created from cells9.ext - technology: gf180mcuD

* Black-box entry subcircuit for gf180mcu_fd_sc_mcu9t5v0__fill_2 abstract view
.subckt gf180mcu_fd_sc_mcu9t5v0__fill_2 VDD VNW VPW VSS
.ends

* Black-box entry subcircuit for gf180mcu_fd_sc_mcu9t5v0__fillcap_4 abstract view
.subckt gf180mcu_fd_sc_mcu9t5v0__fillcap_4 VDD VNW VPW VSS
.ends

* Black-box entry subcircuit for gf180mcu_fd_sc_mcu9t5v0__filltie abstract view
.subckt gf180mcu_fd_sc_mcu9t5v0__filltie VDD VSS
.ends

* Black-box entry subcircuit for gf180mcu_fd_sc_mcu9t5v0__dffq_1 abstract view
.subckt gf180mcu_fd_sc_mcu9t5v0__dffq_1 D CLK Q VDD VNW VPW VSS
.ends

* Black-box entry subcircuit for gf180mcu_fd_sc_mcu9t5v0__antenna abstract view
.subckt gf180mcu_fd_sc_mcu9t5v0__antenna I VDD VNW VPW VSS
.ends

* Black-box entry subcircuit for gf180mcu_fd_sc_mcu9t5v0__oai21_1 abstract view
.subckt gf180mcu_fd_sc_mcu9t5v0__oai21_1 A1 A2 B ZN VDD VNW VPW VSS
.ends

* Black-box entry subcircuit for gf180mcu_fd_sc_mcu9t5v0__mux4_1 abstract view
.subckt gf180mcu_fd_sc_mcu9t5v0__mux4_1 I0 I1 I2 I3 S0 S1 Z VDD VNW VPW VSS
.ends

* Black-box entry subcircuit for gf180mcu_fd_sc_mcu9t5v0__fillcap_64 abstract view
.subckt gf180mcu_fd_sc_mcu9t5v0__fillcap_64 VDD VNW VPW VSS
.ends

* Black-box entry subcircuit for gf180mcu_fd_sc_mcu9t5v0__fillcap_8 abstract view
.subckt gf180mcu_fd_sc_mcu9t5v0__fillcap_8 VDD VNW VPW VSS
.ends

* Black-box entry subcircuit for gf180mcu_fd_sc_mcu9t5v0__fill_1 abstract view
.subckt gf180mcu_fd_sc_mcu9t5v0__fill_1 VDD VNW VPW VSS
.ends

* Black-box entry subcircuit for gf180mcu_fd_sc_mcu9t5v0__dffrsnq_2 abstract view
.subckt gf180mcu_fd_sc_mcu9t5v0__dffrsnq_2 D RN SETN CLK Q VDD VNW VPW VSS
.ends

* Black-box entry subcircuit for gf180mcu_fd_sc_mcu9t5v0__mux2_1 abstract view
.subckt gf180mcu_fd_sc_mcu9t5v0__mux2_1 I0 I1 S Z VDD VNW VPW VSS
.ends

* Black-box entry subcircuit for gf180mcu_fd_sc_mcu9t5v0__oai211_1 abstract view
.subckt gf180mcu_fd_sc_mcu9t5v0__oai211_1 A1 A2 B C ZN VDD VNW VPW VSS
.ends

* Black-box entry subcircuit for gf180mcu_fd_sc_mcu9t5v0__fillcap_32 abstract view
.subckt gf180mcu_fd_sc_mcu9t5v0__fillcap_32 VDD VNW VPW VSS
.ends

* Black-box entry subcircuit for gf180mcu_fd_sc_mcu9t5v0__endcap abstract view
.subckt gf180mcu_fd_sc_mcu9t5v0__endcap VDD VSS
.ends

* Black-box entry subcircuit for gf180mcu_fd_sc_mcu9t5v0__dffrnq_1 abstract view
.subckt gf180mcu_fd_sc_mcu9t5v0__dffrnq_1 D RN CLK Q VDD VNW VPW VSS
.ends

* Black-box entry subcircuit for gf180mcu_fd_sc_mcu9t5v0__nor2_1 abstract view
.subckt gf180mcu_fd_sc_mcu9t5v0__nor2_1 A1 A2 ZN VDD VNW VPW VSS
.ends

* Black-box entry subcircuit for gf180mcu_fd_sc_mcu9t5v0__and3_2 abstract view
.subckt gf180mcu_fd_sc_mcu9t5v0__and3_2 A1 A2 A3 Z VDD VNW VPW VSS
.ends

* Black-box entry subcircuit for gf180mcu_fd_sc_mcu9t5v0__fillcap_16 abstract view
.subckt gf180mcu_fd_sc_mcu9t5v0__fillcap_16 VDD VNW VPW VSS
.ends

* Black-box entry subcircuit for gf180mcu_fd_sc_mcu9t5v0__sdffsnq_2 abstract view
.subckt gf180mcu_fd_sc_mcu9t5v0__sdffsnq_2 D SE SETN SI CLK Q VDD VNW VPW VSS
.ends

* Black-box entry subcircuit for gf180mcu_fd_sc_mcu9t5v0__clkbuf_4 abstract view
.subckt gf180mcu_fd_sc_mcu9t5v0__clkbuf_4 I Z VDD VNW VPW VSS
.ends

* Black-box entry subcircuit for gf180mcu_fd_sc_mcu9t5v0__dlya_1 abstract view
.subckt gf180mcu_fd_sc_mcu9t5v0__dlya_1 I Z VDD VNW VPW VSS
.ends

* Black-box entry subcircuit for gf180mcu_fd_sc_mcu9t5v0__xnor3_2 abstract view
.subckt gf180mcu_fd_sc_mcu9t5v0__xnor3_2 A1 A2 A3 ZN VDD VNW VPW VSS
.ends

* Black-box entry subcircuit for gf180mcu_fd_sc_mcu9t5v0__buf_1 abstract view
.subckt gf180mcu_fd_sc_mcu9t5v0__buf_1 I Z VDD VNW VPW VSS
.ends

* Black-box entry subcircuit for gf180mcu_fd_sc_mcu9t5v0__nand2_1 abstract view
.subckt gf180mcu_fd_sc_mcu9t5v0__nand2_1 A1 A2 ZN VDD VNW VPW VSS
.ends

* Black-box entry subcircuit for gf180mcu_fd_sc_mcu9t5v0__clkbuf_1 abstract view
.subckt gf180mcu_fd_sc_mcu9t5v0__clkbuf_1 I Z VDD VNW VPW VSS
.ends

* Black-box entry subcircuit for gf180mcu_fd_sc_mcu9t5v0__clkinv_16 abstract view
.subckt gf180mcu_fd_sc_mcu9t5v0__clkinv_16 I ZN VDD VNW VPW VSS
.ends

* Black-box entry subcircuit for gf180mcu_fd_sc_mcu9t5v0__dffsnq_2 abstract view
.subckt gf180mcu_fd_sc_mcu9t5v0__dffsnq_2 D SETN CLK Q VDD VNW VPW VSS
.ends

* Black-box entry subcircuit for gf180mcu_fd_sc_mcu9t5v0__sdffq_1 abstract view
.subckt gf180mcu_fd_sc_mcu9t5v0__sdffq_1 D SE SI CLK Q VDD VNW VPW VSS
.ends

* Black-box entry subcircuit for gf180mcu_fd_sc_mcu9t5v0__dffnrsnq_2 abstract view
.subckt gf180mcu_fd_sc_mcu9t5v0__dffnrsnq_2 D RN SETN CLKN Q VDD VNW VPW VSS
.ends

* Black-box entry subcircuit for gf180mcu_fd_sc_mcu9t5v0__oai32_1 abstract view
.subckt gf180mcu_fd_sc_mcu9t5v0__oai32_1 A1 A2 A3 B1 B2 ZN VDD VNW VPW VSS
.ends

* Black-box entry subcircuit for gf180mcu_fd_sc_mcu9t5v0__inv_2 abstract view
.subckt gf180mcu_fd_sc_mcu9t5v0__inv_2 I ZN VDD VNW VPW VSS
.ends

* Black-box entry subcircuit for gf180mcu_fd_sc_mcu9t5v0__aoi211_1 abstract view
.subckt gf180mcu_fd_sc_mcu9t5v0__aoi211_1 A1 A2 B C ZN VDD VNW VPW VSS
.ends

* Black-box entry subcircuit for gf180mcu_fd_sc_mcu9t5v0__inv_1 abstract view
.subckt gf180mcu_fd_sc_mcu9t5v0__inv_1 I ZN VDD VNW VPW VSS
.ends

* Black-box entry subcircuit for gf180mcu_fd_sc_mcu9t5v0__mux4_2 abstract view
.subckt gf180mcu_fd_sc_mcu9t5v0__mux4_2 I0 I1 I2 I3 S0 S1 Z VDD VNW VPW VSS
.ends

* Black-box entry subcircuit for gf180mcu_fd_sc_mcu9t5v0__aoi21_4 abstract view
.subckt gf180mcu_fd_sc_mcu9t5v0__aoi21_4 A1 A2 B ZN VDD VNW VPW VSS
.ends

* Black-box entry subcircuit for gf180mcu_fd_sc_mcu9t5v0__dlyc_2 abstract view
.subckt gf180mcu_fd_sc_mcu9t5v0__dlyc_2 I Z VDD VNW VPW VSS
.ends

* Black-box entry subcircuit for gf180mcu_fd_sc_mcu9t5v0__oai222_2 abstract view
.subckt gf180mcu_fd_sc_mcu9t5v0__oai222_2 A1 A2 B1 B2 C1 C2 ZN VDD VNW VPW VSS
.ends

* Black-box entry subcircuit for gf180mcu_fd_sc_mcu9t5v0__mux2_4 abstract view
.subckt gf180mcu_fd_sc_mcu9t5v0__mux2_4 I0 I1 S Z VDD VNW VPW VSS
.ends

* Black-box entry subcircuit for gf180mcu_fd_sc_mcu9t5v0__clkinv_1 abstract view
.subckt gf180mcu_fd_sc_mcu9t5v0__clkinv_1 I ZN VDD VNW VPW VSS
.ends

* Black-box entry subcircuit for gf180mcu_fd_sc_mcu9t5v0__dlya_4 abstract view
.subckt gf180mcu_fd_sc_mcu9t5v0__dlya_4 I Z VDD VNW VPW VSS
.ends

* Black-box entry subcircuit for gf180mcu_fd_sc_mcu9t5v0__or2_2 abstract view
.subckt gf180mcu_fd_sc_mcu9t5v0__or2_2 A1 A2 Z VDD VNW VPW VSS
.ends

* Black-box entry subcircuit for gf180mcu_fd_sc_mcu9t5v0__addf_2 abstract view
.subckt gf180mcu_fd_sc_mcu9t5v0__addf_2 A B CI CO S VDD VNW VPW VSS
.ends

* Black-box entry subcircuit for gf180mcu_fd_sc_mcu9t5v0__aoi22_1 abstract view
.subckt gf180mcu_fd_sc_mcu9t5v0__aoi22_1 A1 A2 B1 B2 ZN VDD VNW VPW VSS
.ends

* Black-box entry subcircuit for gf180mcu_fd_sc_mcu9t5v0__sdffq_4 abstract view
.subckt gf180mcu_fd_sc_mcu9t5v0__sdffq_4 D SE SI CLK Q VDD VNW VPW VSS
.ends

* Black-box entry subcircuit for gf180mcu_fd_sc_mcu9t5v0__aoi222_2 abstract view
.subckt gf180mcu_fd_sc_mcu9t5v0__aoi222_2 A1 A2 B1 B2 C1 C2 ZN VDD VNW VPW VSS
.ends

* Black-box entry subcircuit for gf180mcu_fd_sc_mcu9t5v0__oai32_4 abstract view
.subckt gf180mcu_fd_sc_mcu9t5v0__oai32_4 A1 A2 A3 B1 B2 ZN VDD VNW VPW VSS
.ends

* Black-box entry subcircuit for gf180mcu_fd_sc_mcu9t5v0__invz_2 abstract view
.subckt gf180mcu_fd_sc_mcu9t5v0__invz_2 EN I ZN VDD VNW VPW VSS
.ends

* Black-box entry subcircuit for gf180mcu_fd_sc_mcu9t5v0__sdffrsnq_1 abstract view
.subckt gf180mcu_fd_sc_mcu9t5v0__sdffrsnq_1 D RN SE SETN SI CLK Q VDD VNW VPW VSS
.ends

* Black-box entry subcircuit for gf180mcu_fd_sc_mcu9t5v0__bufz_1 abstract view
.subckt gf180mcu_fd_sc_mcu9t5v0__bufz_1 EN I Z VDD VNW VPW VSS
.ends

* Black-box entry subcircuit for gf180mcu_fd_sc_mcu9t5v0__and2_1 abstract view
.subckt gf180mcu_fd_sc_mcu9t5v0__and2_1 A1 A2 Z VDD VNW VPW VSS
.ends

* Black-box entry subcircuit for gf180mcu_fd_sc_mcu9t5v0__nor4_2 abstract view
.subckt gf180mcu_fd_sc_mcu9t5v0__nor4_2 A1 A2 A3 A4 ZN VDD VNW VPW VSS
.ends

* Black-box entry subcircuit for gf180mcu_fd_sc_mcu9t5v0__nand4_2 abstract view
.subckt gf180mcu_fd_sc_mcu9t5v0__nand4_2 A1 A2 A3 A4 ZN VDD VNW VPW VSS
.ends

* Black-box entry subcircuit for gf180mcu_fd_sc_mcu9t5v0__oai211_2 abstract view
.subckt gf180mcu_fd_sc_mcu9t5v0__oai211_2 A1 A2 B C ZN VDD VNW VPW VSS
.ends

* Black-box entry subcircuit for gf180mcu_fd_sc_mcu9t5v0__xnor2_1 abstract view
.subckt gf180mcu_fd_sc_mcu9t5v0__xnor2_1 A1 A2 ZN VDD VNW VPW VSS
.ends

* Black-box entry subcircuit for gf180mcu_fd_sc_mcu9t5v0__nor2_4 abstract view
.subckt gf180mcu_fd_sc_mcu9t5v0__nor2_4 A1 A2 ZN VDD VNW VPW VSS
.ends

* Black-box entry subcircuit for gf180mcu_fd_sc_mcu9t5v0__nand2_4 abstract view
.subckt gf180mcu_fd_sc_mcu9t5v0__nand2_4 A1 A2 ZN VDD VNW VPW VSS
.ends

* Black-box entry subcircuit for gf180mcu_fd_sc_mcu9t5v0__clkinv_2 abstract view
.subckt gf180mcu_fd_sc_mcu9t5v0__clkinv_2 I ZN VDD VNW VPW VSS
.ends

* Black-box entry subcircuit for gf180mcu_fd_sc_mcu9t5v0__buf_3 abstract view
.subckt gf180mcu_fd_sc_mcu9t5v0__buf_3 I Z VDD VNW VPW VSS
.ends

* Black-box entry subcircuit for gf180mcu_fd_sc_mcu9t5v0__and4_2 abstract view
.subckt gf180mcu_fd_sc_mcu9t5v0__and4_2 A1 A2 A3 A4 Z VDD VNW VPW VSS
.ends

* Black-box entry subcircuit for gf180mcu_fd_sc_mcu9t5v0__aoi211_2 abstract view
.subckt gf180mcu_fd_sc_mcu9t5v0__aoi211_2 A1 A2 B C ZN VDD VNW VPW VSS
.ends

* Black-box entry subcircuit for gf180mcu_fd_sc_mcu9t5v0__latq_2 abstract view
.subckt gf180mcu_fd_sc_mcu9t5v0__latq_2 D E Q VDD VNW VPW VSS
.ends

* Black-box entry subcircuit for gf180mcu_fd_sc_mcu9t5v0__oai21_4 abstract view
.subckt gf180mcu_fd_sc_mcu9t5v0__oai21_4 A1 A2 B ZN VDD VNW VPW VSS
.ends

* Black-box entry subcircuit for gf180mcu_fd_sc_mcu9t5v0__inv_8 abstract view
.subckt gf180mcu_fd_sc_mcu9t5v0__inv_8 I ZN VDD VNW VPW VSS
.ends

* Black-box entry subcircuit for gf180mcu_fd_sc_mcu9t5v0__dlyb_1 abstract view
.subckt gf180mcu_fd_sc_mcu9t5v0__dlyb_1 I Z VDD VNW VPW VSS
.ends

* Black-box entry subcircuit for gf180mcu_fd_sc_mcu9t5v0__sdffrsnq_4 abstract view
.subckt gf180mcu_fd_sc_mcu9t5v0__sdffrsnq_4 D RN SE SETN SI CLK Q VDD VNW VPW VSS
.ends

* Black-box entry subcircuit for gf180mcu_fd_sc_mcu9t5v0__oai221_1 abstract view
.subckt gf180mcu_fd_sc_mcu9t5v0__oai221_1 A1 A2 B1 B2 C ZN VDD VNW VPW VSS
.ends

* Black-box entry subcircuit for gf180mcu_fd_sc_mcu9t5v0__icgtp_4 abstract view
.subckt gf180mcu_fd_sc_mcu9t5v0__icgtp_4 CLK E TE Q VDD VNW VPW VSS
.ends

* Black-box entry subcircuit for gf180mcu_fd_sc_mcu9t5v0__latrnq_2 abstract view
.subckt gf180mcu_fd_sc_mcu9t5v0__latrnq_2 D E RN Q VDD VNW VPW VSS
.ends

* Black-box entry subcircuit for gf180mcu_fd_sc_mcu9t5v0__bufz_4 abstract view
.subckt gf180mcu_fd_sc_mcu9t5v0__bufz_4 EN I Z VDD VNW VPW VSS
.ends

* Black-box entry subcircuit for gf180mcu_fd_sc_mcu9t5v0__and2_4 abstract view
.subckt gf180mcu_fd_sc_mcu9t5v0__and2_4 A1 A2 Z VDD VNW VPW VSS
.ends

* Black-box entry subcircuit for gf180mcu_fd_sc_mcu9t5v0__latsnq_1 abstract view
.subckt gf180mcu_fd_sc_mcu9t5v0__latsnq_1 D E SETN Q VDD VNW VPW VSS
.ends

* Black-box entry subcircuit for gf180mcu_fd_sc_mcu9t5v0__bufz_16 abstract view
.subckt gf180mcu_fd_sc_mcu9t5v0__bufz_16 EN I Z VDD VNW VPW VSS
.ends

* Black-box entry subcircuit for gf180mcu_fd_sc_mcu9t5v0__oai33_1 abstract view
.subckt gf180mcu_fd_sc_mcu9t5v0__oai33_1 A1 A2 A3 B1 B2 B3 ZN VDD VNW VPW VSS
.ends

* Black-box entry subcircuit for gf180mcu_fd_sc_mcu9t5v0__dffq_2 abstract view
.subckt gf180mcu_fd_sc_mcu9t5v0__dffq_2 D CLK Q VDD VNW VPW VSS
.ends

* Black-box entry subcircuit for gf180mcu_fd_sc_mcu9t5v0__xnor2_4 abstract view
.subckt gf180mcu_fd_sc_mcu9t5v0__xnor2_4 A1 A2 ZN VDD VNW VPW VSS
.ends

* Black-box entry subcircuit for gf180mcu_fd_sc_mcu9t5v0__buf_20 abstract view
.subckt gf180mcu_fd_sc_mcu9t5v0__buf_20 I Z VDD VNW VPW VSS
.ends

* Black-box entry subcircuit for gf180mcu_fd_sc_mcu9t5v0__aoi221_1 abstract view
.subckt gf180mcu_fd_sc_mcu9t5v0__aoi221_1 A1 A2 B1 B2 C ZN VDD VNW VPW VSS
.ends

* Black-box entry subcircuit for gf180mcu_fd_sc_mcu9t5v0__aoi22_4 abstract view
.subckt gf180mcu_fd_sc_mcu9t5v0__aoi22_4 A1 A2 B1 B2 ZN VDD VNW VPW VSS
.ends

* Black-box entry subcircuit for gf180mcu_fd_sc_mcu9t5v0__dlyd_2 abstract view
.subckt gf180mcu_fd_sc_mcu9t5v0__dlyd_2 I Z VDD VNW VPW VSS
.ends

* Black-box entry subcircuit for gf180mcu_fd_sc_mcu9t5v0__nor3_1 abstract view
.subckt gf180mcu_fd_sc_mcu9t5v0__nor3_1 A1 A2 A3 ZN VDD VNW VPW VSS
.ends

* Black-box entry subcircuit for gf180mcu_fd_sc_mcu9t5v0__clkinv_12 abstract view
.subckt gf180mcu_fd_sc_mcu9t5v0__clkinv_12 I ZN VDD VNW VPW VSS
.ends

* Black-box entry subcircuit for gf180mcu_fd_sc_mcu9t5v0__dffnrnq_2 abstract view
.subckt gf180mcu_fd_sc_mcu9t5v0__dffnrnq_2 D RN CLKN Q VDD VNW VPW VSS
.ends

* Black-box entry subcircuit for gf180mcu_fd_sc_mcu9t5v0__dlyb_4 abstract view
.subckt gf180mcu_fd_sc_mcu9t5v0__dlyb_4 I Z VDD VNW VPW VSS
.ends

* Black-box entry subcircuit for gf180mcu_fd_sc_mcu9t5v0__invz_8 abstract view
.subckt gf180mcu_fd_sc_mcu9t5v0__invz_8 EN I ZN VDD VNW VPW VSS
.ends

* Black-box entry subcircuit for gf180mcu_fd_sc_mcu9t5v0__or3_2 abstract view
.subckt gf180mcu_fd_sc_mcu9t5v0__or3_2 A1 A2 A3 Z VDD VNW VPW VSS
.ends

* Black-box entry subcircuit for gf180mcu_fd_sc_mcu9t5v0__oai221_4 abstract view
.subckt gf180mcu_fd_sc_mcu9t5v0__oai221_4 A1 A2 B1 B2 C ZN VDD VNW VPW VSS
.ends

* Black-box entry subcircuit for gf180mcu_fd_sc_mcu9t5v0__dffnsnq_1 abstract view
.subckt gf180mcu_fd_sc_mcu9t5v0__dffnsnq_1 D SETN CLKN Q VDD VNW VPW VSS
.ends

* Black-box entry subcircuit for gf180mcu_fd_sc_mcu9t5v0__nand3_1 abstract view
.subckt gf180mcu_fd_sc_mcu9t5v0__nand3_1 A1 A2 A3 ZN VDD VNW VPW VSS
.ends

* Black-box entry subcircuit for gf180mcu_fd_sc_mcu9t5v0__latsnq_4 abstract view
.subckt gf180mcu_fd_sc_mcu9t5v0__latsnq_4 D E SETN Q VDD VNW VPW VSS
.ends

* Black-box entry subcircuit for gf180mcu_fd_sc_mcu9t5v0__oai33_4 abstract view
.subckt gf180mcu_fd_sc_mcu9t5v0__oai33_4 A1 A2 A3 B1 B2 B3 ZN VDD VNW VPW VSS
.ends

* Black-box entry subcircuit for gf180mcu_fd_sc_mcu9t5v0__oai22_1 abstract view
.subckt gf180mcu_fd_sc_mcu9t5v0__oai22_1 A1 A2 B1 B2 ZN VDD VNW VPW VSS
.ends

* Black-box entry subcircuit for gf180mcu_fd_sc_mcu9t5v0__dffrsnq_1 abstract view
.subckt gf180mcu_fd_sc_mcu9t5v0__dffrsnq_1 D RN SETN CLK Q VDD VNW VPW VSS
.ends

* Black-box entry subcircuit for gf180mcu_fd_sc_mcu9t5v0__sdffrnq_2 abstract view
.subckt gf180mcu_fd_sc_mcu9t5v0__sdffrnq_2 D RN SE SI CLK Q VDD VNW VPW VSS
.ends

* Black-box entry subcircuit for gf180mcu_fd_sc_mcu9t5v0__tiel abstract view
.subckt gf180mcu_fd_sc_mcu9t5v0__tiel ZN VDD VNW VPW VSS
.ends

* Black-box entry subcircuit for gf180mcu_fd_sc_mcu9t5v0__and3_1 abstract view
.subckt gf180mcu_fd_sc_mcu9t5v0__and3_1 A1 A2 A3 Z VDD VNW VPW VSS
.ends

* Black-box entry subcircuit for gf180mcu_fd_sc_mcu9t5v0__aoi221_4 abstract view
.subckt gf180mcu_fd_sc_mcu9t5v0__aoi221_4 A1 A2 B1 B2 C ZN VDD VNW VPW VSS
.ends

* Black-box entry subcircuit for gf180mcu_fd_sc_mcu9t5v0__sdffsnq_1 abstract view
.subckt gf180mcu_fd_sc_mcu9t5v0__sdffsnq_1 D SE SETN SI CLK Q VDD VNW VPW VSS
.ends

* Black-box entry subcircuit for gf180mcu_fd_sc_mcu9t5v0__clkbuf_3 abstract view
.subckt gf180mcu_fd_sc_mcu9t5v0__clkbuf_3 I Z VDD VNW VPW VSS
.ends

* Black-box entry subcircuit for gf180mcu_fd_sc_mcu9t5v0__clkinv_8 abstract view
.subckt gf180mcu_fd_sc_mcu9t5v0__clkinv_8 I ZN VDD VNW VPW VSS
.ends

* Black-box entry subcircuit for gf180mcu_fd_sc_mcu9t5v0__xnor3_1 abstract view
.subckt gf180mcu_fd_sc_mcu9t5v0__xnor3_1 A1 A2 A3 ZN VDD VNW VPW VSS
.ends

* Black-box entry subcircuit for gf180mcu_fd_sc_mcu9t5v0__or4_1 abstract view
.subckt gf180mcu_fd_sc_mcu9t5v0__or4_1 A1 A2 A3 A4 Z VDD VNW VPW VSS
.ends

* Black-box entry subcircuit for gf180mcu_fd_sc_mcu9t5v0__dffrnq_2 abstract view
.subckt gf180mcu_fd_sc_mcu9t5v0__dffrnq_2 D RN CLK Q VDD VNW VPW VSS
.ends

* Black-box entry subcircuit for gf180mcu_fd_sc_mcu9t5v0__dffsnq_1 abstract view
.subckt gf180mcu_fd_sc_mcu9t5v0__dffsnq_1 D SETN CLK Q VDD VNW VPW VSS
.ends

* Black-box entry subcircuit for gf180mcu_fd_sc_mcu9t5v0__dffnrsnq_1 abstract view
.subckt gf180mcu_fd_sc_mcu9t5v0__dffnrsnq_1 D RN SETN CLKN Q VDD VNW VPW VSS
.ends

* Black-box entry subcircuit for gf180mcu_fd_sc_mcu9t5v0__nor3_4 abstract view
.subckt gf180mcu_fd_sc_mcu9t5v0__nor3_4 A1 A2 A3 ZN VDD VNW VPW VSS
.ends

* Black-box entry subcircuit for gf180mcu_fd_sc_mcu9t5v0__dffnsnq_4 abstract view
.subckt gf180mcu_fd_sc_mcu9t5v0__dffnsnq_4 D SETN CLKN Q VDD VNW VPW VSS
.ends

* Black-box entry subcircuit for gf180mcu_fd_sc_mcu9t5v0__nand3_4 abstract view
.subckt gf180mcu_fd_sc_mcu9t5v0__nand3_4 A1 A2 A3 ZN VDD VNW VPW VSS
.ends

* Black-box entry subcircuit for gf180mcu_fd_sc_mcu9t5v0__xor2_2 abstract view
.subckt gf180mcu_fd_sc_mcu9t5v0__xor2_2 A1 A2 Z VDD VNW VPW VSS
.ends

* Black-box entry subcircuit for gf180mcu_fd_sc_mcu9t5v0__oai22_4 abstract view
.subckt gf180mcu_fd_sc_mcu9t5v0__oai22_4 A1 A2 B1 B2 ZN VDD VNW VPW VSS
.ends

* Black-box entry subcircuit for gf180mcu_fd_sc_mcu9t5v0__dlyc_1 abstract view
.subckt gf180mcu_fd_sc_mcu9t5v0__dlyc_1 I Z VDD VNW VPW VSS
.ends

* Black-box entry subcircuit for gf180mcu_fd_sc_mcu9t5v0__dffrsnq_4 abstract view
.subckt gf180mcu_fd_sc_mcu9t5v0__dffrsnq_4 D RN SETN CLK Q VDD VNW VPW VSS
.ends

* Black-box entry subcircuit for gf180mcu_fd_sc_mcu9t5v0__oai222_1 abstract view
.subckt gf180mcu_fd_sc_mcu9t5v0__oai222_1 A1 A2 B1 B2 C1 C2 ZN VDD VNW VPW VSS
.ends

* Black-box entry subcircuit for gf180mcu_fd_sc_mcu9t5v0__and3_4 abstract view
.subckt gf180mcu_fd_sc_mcu9t5v0__and3_4 A1 A2 A3 Z VDD VNW VPW VSS
.ends

* Black-box entry subcircuit for gf180mcu_fd_sc_mcu9t5v0__sdffsnq_4 abstract view
.subckt gf180mcu_fd_sc_mcu9t5v0__sdffsnq_4 D SE SETN SI CLK Q VDD VNW VPW VSS
.ends

* Black-box entry subcircuit for gf180mcu_fd_sc_mcu9t5v0__aoi21_1 abstract view
.subckt gf180mcu_fd_sc_mcu9t5v0__aoi21_1 A1 A2 B ZN VDD VNW VPW VSS
.ends

* Black-box entry subcircuit for gf180mcu_fd_sc_mcu9t5v0__xnor3_4 abstract view
.subckt gf180mcu_fd_sc_mcu9t5v0__xnor3_4 A1 A2 A3 ZN VDD VNW VPW VSS
.ends

* Black-box entry subcircuit for gf180mcu_fd_sc_mcu9t5v0__or2_1 abstract view
.subckt gf180mcu_fd_sc_mcu9t5v0__or2_1 A1 A2 Z VDD VNW VPW VSS
.ends

* Black-box entry subcircuit for gf180mcu_fd_sc_mcu9t5v0__addf_1 abstract view
.subckt gf180mcu_fd_sc_mcu9t5v0__addf_1 A B CI CO S VDD VNW VPW VSS
.ends

* Black-box entry subcircuit for gf180mcu_fd_sc_mcu9t5v0__buf_16 abstract view
.subckt gf180mcu_fd_sc_mcu9t5v0__buf_16 I Z VDD VNW VPW VSS
.ends

* Black-box entry subcircuit for gf180mcu_fd_sc_mcu9t5v0__dffsnq_4 abstract view
.subckt gf180mcu_fd_sc_mcu9t5v0__dffsnq_4 D SETN CLK Q VDD VNW VPW VSS
.ends

* Black-box entry subcircuit for gf180mcu_fd_sc_mcu9t5v0__aoi222_1 abstract view
.subckt gf180mcu_fd_sc_mcu9t5v0__aoi222_1 A1 A2 B1 B2 C1 C2 ZN VDD VNW VPW VSS
.ends

* Black-box entry subcircuit for gf180mcu_fd_sc_mcu9t5v0__dffnrsnq_4 abstract view
.subckt gf180mcu_fd_sc_mcu9t5v0__dffnrsnq_4 D RN SETN CLKN Q VDD VNW VPW VSS
.ends

* Black-box entry subcircuit for gf180mcu_fd_sc_mcu9t5v0__inv_4 abstract view
.subckt gf180mcu_fd_sc_mcu9t5v0__inv_4 I ZN VDD VNW VPW VSS
.ends

* Black-box entry subcircuit for gf180mcu_fd_sc_mcu9t5v0__invz_1 abstract view
.subckt gf180mcu_fd_sc_mcu9t5v0__invz_1 EN I ZN VDD VNW VPW VSS
.ends

* Black-box entry subcircuit for gf180mcu_fd_sc_mcu9t5v0__mux4_4 abstract view
.subckt gf180mcu_fd_sc_mcu9t5v0__mux4_4 I0 I1 I2 I3 S0 S1 Z VDD VNW VPW VSS
.ends

* Black-box entry subcircuit for gf180mcu_fd_sc_mcu9t5v0__dlyc_4 abstract view
.subckt gf180mcu_fd_sc_mcu9t5v0__dlyc_4 I Z VDD VNW VPW VSS
.ends

* Black-box entry subcircuit for gf180mcu_fd_sc_mcu9t5v0__or4_2 abstract view
.subckt gf180mcu_fd_sc_mcu9t5v0__or4_2 A1 A2 A3 A4 Z VDD VNW VPW VSS
.ends

* Black-box entry subcircuit for gf180mcu_fd_sc_mcu9t5v0__bufz_12 abstract view
.subckt gf180mcu_fd_sc_mcu9t5v0__bufz_12 EN I Z VDD VNW VPW VSS
.ends

* Black-box entry subcircuit for gf180mcu_fd_sc_mcu9t5v0__addh_2 abstract view
.subckt gf180mcu_fd_sc_mcu9t5v0__addh_2 A B CO S VDD VNW VPW VSS
.ends

* Black-box entry subcircuit for gf180mcu_fd_sc_mcu9t5v0__nor4_1 abstract view
.subckt gf180mcu_fd_sc_mcu9t5v0__nor4_1 A1 A2 A3 A4 ZN VDD VNW VPW VSS
.ends

* Black-box entry subcircuit for gf180mcu_fd_sc_mcu9t5v0__oai222_4 abstract view
.subckt gf180mcu_fd_sc_mcu9t5v0__oai222_4 A1 A2 B1 B2 C1 C2 ZN VDD VNW VPW VSS
.ends

* Black-box entry subcircuit for gf180mcu_fd_sc_mcu9t5v0__nand4_1 abstract view
.subckt gf180mcu_fd_sc_mcu9t5v0__nand4_1 A1 A2 A3 A4 ZN VDD VNW VPW VSS
.ends

* Black-box entry subcircuit for gf180mcu_fd_sc_mcu9t5v0__latrsnq_2 abstract view
.subckt gf180mcu_fd_sc_mcu9t5v0__latrsnq_2 D E RN SETN Q VDD VNW VPW VSS
.ends

* Black-box entry subcircuit for gf180mcu_fd_sc_mcu9t5v0__icgtn_2 abstract view
.subckt gf180mcu_fd_sc_mcu9t5v0__icgtn_2 CLKN E TE Q VDD VNW VPW VSS
.ends

* Black-box entry subcircuit for gf180mcu_fd_sc_mcu9t5v0__or2_4 abstract view
.subckt gf180mcu_fd_sc_mcu9t5v0__or2_4 A1 A2 Z VDD VNW VPW VSS
.ends

* Black-box entry subcircuit for gf180mcu_fd_sc_mcu9t5v0__addf_4 abstract view
.subckt gf180mcu_fd_sc_mcu9t5v0__addf_4 A B CI CO S VDD VNW VPW VSS
.ends

* Black-box entry subcircuit for gf180mcu_fd_sc_mcu9t5v0__buf_2 abstract view
.subckt gf180mcu_fd_sc_mcu9t5v0__buf_2 I Z VDD VNW VPW VSS
.ends

* Black-box entry subcircuit for gf180mcu_fd_sc_mcu9t5v0__and4_1 abstract view
.subckt gf180mcu_fd_sc_mcu9t5v0__and4_1 A1 A2 A3 A4 Z VDD VNW VPW VSS
.ends

* Black-box entry subcircuit for gf180mcu_fd_sc_mcu9t5v0__aoi222_4 abstract view
.subckt gf180mcu_fd_sc_mcu9t5v0__aoi222_4 A1 A2 B1 B2 C1 C2 ZN VDD VNW VPW VSS
.ends

* Black-box entry subcircuit for gf180mcu_fd_sc_mcu9t5v0__latq_1 abstract view
.subckt gf180mcu_fd_sc_mcu9t5v0__latq_1 D E Q VDD VNW VPW VSS
.ends

* Black-box entry subcircuit for gf180mcu_fd_sc_mcu9t5v0__invz_4 abstract view
.subckt gf180mcu_fd_sc_mcu9t5v0__invz_4 EN I ZN VDD VNW VPW VSS
.ends

* Black-box entry subcircuit for gf180mcu_fd_sc_mcu9t5v0__latrnq_1 abstract view
.subckt gf180mcu_fd_sc_mcu9t5v0__latrnq_1 D E RN Q VDD VNW VPW VSS
.ends

* Black-box entry subcircuit for gf180mcu_fd_sc_mcu9t5v0__bufz_3 abstract view
.subckt gf180mcu_fd_sc_mcu9t5v0__bufz_3 EN I Z VDD VNW VPW VSS
.ends

* Black-box entry subcircuit for gf180mcu_fd_sc_mcu9t5v0__inv_20 abstract view
.subckt gf180mcu_fd_sc_mcu9t5v0__inv_20 I ZN VDD VNW VPW VSS
.ends

* Black-box entry subcircuit for gf180mcu_fd_sc_mcu9t5v0__nor4_4 abstract view
.subckt gf180mcu_fd_sc_mcu9t5v0__nor4_4 A1 A2 A3 A4 ZN VDD VNW VPW VSS
.ends

* Black-box entry subcircuit for gf180mcu_fd_sc_mcu9t5v0__nand4_4 abstract view
.subckt gf180mcu_fd_sc_mcu9t5v0__nand4_4 A1 A2 A3 A4 ZN VDD VNW VPW VSS
.ends

* Black-box entry subcircuit for gf180mcu_fd_sc_mcu9t5v0__oai211_4 abstract view
.subckt gf180mcu_fd_sc_mcu9t5v0__oai211_4 A1 A2 B C ZN VDD VNW VPW VSS
.ends

* Black-box entry subcircuit for gf180mcu_fd_sc_mcu9t5v0__xor3_2 abstract view
.subckt gf180mcu_fd_sc_mcu9t5v0__xor3_2 A1 A2 A3 Z VDD VNW VPW VSS
.ends

* Black-box entry subcircuit for gf180mcu_fd_sc_mcu9t5v0__clkbuf_20 abstract view
.subckt gf180mcu_fd_sc_mcu9t5v0__clkbuf_20 I Z VDD VNW VPW VSS
.ends

* Black-box entry subcircuit for gf180mcu_fd_sc_mcu9t5v0__oai31_2 abstract view
.subckt gf180mcu_fd_sc_mcu9t5v0__oai31_2 A1 A2 A3 B ZN VDD VNW VPW VSS
.ends

* Black-box entry subcircuit for gf180mcu_fd_sc_mcu9t5v0__dlyd_1 abstract view
.subckt gf180mcu_fd_sc_mcu9t5v0__dlyd_1 I Z VDD VNW VPW VSS
.ends

* Black-box entry subcircuit for gf180mcu_fd_sc_mcu9t5v0__dffnq_2 abstract view
.subckt gf180mcu_fd_sc_mcu9t5v0__dffnq_2 D CLKN Q VDD VNW VPW VSS
.ends

* Black-box entry subcircuit for gf180mcu_fd_sc_mcu9t5v0__clkinv_4 abstract view
.subckt gf180mcu_fd_sc_mcu9t5v0__clkinv_4 I ZN VDD VNW VPW VSS
.ends

* Black-box entry subcircuit for gf180mcu_fd_sc_mcu9t5v0__and4_4 abstract view
.subckt gf180mcu_fd_sc_mcu9t5v0__and4_4 A1 A2 A3 A4 Z VDD VNW VPW VSS
.ends

* Black-box entry subcircuit for gf180mcu_fd_sc_mcu9t5v0__aoi211_4 abstract view
.subckt gf180mcu_fd_sc_mcu9t5v0__aoi211_4 A1 A2 B C ZN VDD VNW VPW VSS
.ends

* Black-box entry subcircuit for gf180mcu_fd_sc_mcu9t5v0__latq_4 abstract view
.subckt gf180mcu_fd_sc_mcu9t5v0__latq_4 D E Q VDD VNW VPW VSS
.ends

* Black-box entry subcircuit for gf180mcu_fd_sc_mcu9t5v0__tieh abstract view
.subckt gf180mcu_fd_sc_mcu9t5v0__tieh Z VDD VNW VPW VSS
.ends

* Black-box entry subcircuit for gf180mcu_fd_sc_mcu9t5v0__dffnrnq_1 abstract view
.subckt gf180mcu_fd_sc_mcu9t5v0__dffnrnq_1 D RN CLKN Q VDD VNW VPW VSS
.ends

* Black-box entry subcircuit for gf180mcu_fd_sc_mcu9t5v0__or3_1 abstract view
.subckt gf180mcu_fd_sc_mcu9t5v0__or3_1 A1 A2 A3 Z VDD VNW VPW VSS
.ends

* Black-box entry subcircuit for gf180mcu_fd_sc_mcu9t5v0__latrnq_4 abstract view
.subckt gf180mcu_fd_sc_mcu9t5v0__latrnq_4 D E RN Q VDD VNW VPW VSS
.ends

* Black-box entry subcircuit for gf180mcu_fd_sc_mcu9t5v0__dffq_4 abstract view
.subckt gf180mcu_fd_sc_mcu9t5v0__dffq_4 D CLK Q VDD VNW VPW VSS
.ends

* Black-box entry subcircuit for gf180mcu_fd_sc_mcu9t5v0__sdffrnq_1 abstract view
.subckt gf180mcu_fd_sc_mcu9t5v0__sdffrnq_1 D RN SE SI CLK Q VDD VNW VPW VSS
.ends

* Black-box entry subcircuit for gf180mcu_fd_sc_mcu9t5v0__clkbuf_2 abstract view
.subckt gf180mcu_fd_sc_mcu9t5v0__clkbuf_2 I Z VDD VNW VPW VSS
.ends

* Black-box entry subcircuit for gf180mcu_fd_sc_mcu9t5v0__dlyd_4 abstract view
.subckt gf180mcu_fd_sc_mcu9t5v0__dlyd_4 I Z VDD VNW VPW VSS
.ends

* Black-box entry subcircuit for gf180mcu_fd_sc_mcu9t5v0__buf_8 abstract view
.subckt gf180mcu_fd_sc_mcu9t5v0__buf_8 I Z VDD VNW VPW VSS
.ends

* Black-box entry subcircuit for gf180mcu_fd_sc_mcu9t5v0__buf_12 abstract view
.subckt gf180mcu_fd_sc_mcu9t5v0__buf_12 I Z VDD VNW VPW VSS
.ends

* Black-box entry subcircuit for gf180mcu_fd_sc_mcu9t5v0__dffnrnq_4 abstract view
.subckt gf180mcu_fd_sc_mcu9t5v0__dffnrnq_4 D RN CLKN Q VDD VNW VPW VSS
.ends

* Black-box entry subcircuit for gf180mcu_fd_sc_mcu9t5v0__or3_4 abstract view
.subckt gf180mcu_fd_sc_mcu9t5v0__or3_4 A1 A2 A3 Z VDD VNW VPW VSS
.ends

* Black-box entry subcircuit for gf180mcu_fd_sc_mcu9t5v0__xor2_1 abstract view
.subckt gf180mcu_fd_sc_mcu9t5v0__xor2_1 A1 A2 Z VDD VNW VPW VSS
.ends

* Black-box entry subcircuit for gf180mcu_fd_sc_mcu9t5v0__aoi21_2 abstract view
.subckt gf180mcu_fd_sc_mcu9t5v0__aoi21_2 A1 A2 B ZN VDD VNW VPW VSS
.ends

* Black-box entry subcircuit for gf180mcu_fd_sc_mcu9t5v0__sdffrnq_4 abstract view
.subckt gf180mcu_fd_sc_mcu9t5v0__sdffrnq_4 D RN SE SI CLK Q VDD VNW VPW VSS
.ends

* Black-box entry subcircuit for gf180mcu_fd_sc_mcu9t5v0__hold abstract view
.subckt gf180mcu_fd_sc_mcu9t5v0__hold Z VDD VNW VPW VSS
.ends

* Black-box entry subcircuit for gf180mcu_fd_sc_mcu9t5v0__mux2_2 abstract view
.subckt gf180mcu_fd_sc_mcu9t5v0__mux2_2 I0 I1 S Z VDD VNW VPW VSS
.ends

* Black-box entry subcircuit for gf180mcu_fd_sc_mcu9t5v0__dlya_2 abstract view
.subckt gf180mcu_fd_sc_mcu9t5v0__dlya_2 I Z VDD VNW VPW VSS
.ends

* Black-box entry subcircuit for gf180mcu_fd_sc_mcu9t5v0__inv_16 abstract view
.subckt gf180mcu_fd_sc_mcu9t5v0__inv_16 I ZN VDD VNW VPW VSS
.ends

* Black-box entry subcircuit for gf180mcu_fd_sc_mcu9t5v0__dffrnq_4 abstract view
.subckt gf180mcu_fd_sc_mcu9t5v0__dffrnq_4 D RN CLK Q VDD VNW VPW VSS
.ends

* Black-box entry subcircuit for gf180mcu_fd_sc_mcu9t5v0__icgtp_2 abstract view
.subckt gf180mcu_fd_sc_mcu9t5v0__icgtp_2 CLK E TE Q VDD VNW VPW VSS
.ends

* Black-box entry subcircuit for gf180mcu_fd_sc_mcu9t5v0__sdffq_2 abstract view
.subckt gf180mcu_fd_sc_mcu9t5v0__sdffq_2 D SE SI CLK Q VDD VNW VPW VSS
.ends

* Black-box entry subcircuit for gf180mcu_fd_sc_mcu9t5v0__invz_12 abstract view
.subckt gf180mcu_fd_sc_mcu9t5v0__invz_12 EN I ZN VDD VNW VPW VSS
.ends

* Black-box entry subcircuit for gf180mcu_fd_sc_mcu9t5v0__clkbuf_16 abstract view
.subckt gf180mcu_fd_sc_mcu9t5v0__clkbuf_16 I Z VDD VNW VPW VSS
.ends

* Black-box entry subcircuit for gf180mcu_fd_sc_mcu9t5v0__oai32_2 abstract view
.subckt gf180mcu_fd_sc_mcu9t5v0__oai32_2 A1 A2 A3 B1 B2 ZN VDD VNW VPW VSS
.ends

* Black-box entry subcircuit for gf180mcu_fd_sc_mcu9t5v0__inv_3 abstract view
.subckt gf180mcu_fd_sc_mcu9t5v0__inv_3 I ZN VDD VNW VPW VSS
.ends

* Black-box entry subcircuit for gf180mcu_fd_sc_mcu9t5v0__xor2_4 abstract view
.subckt gf180mcu_fd_sc_mcu9t5v0__xor2_4 A1 A2 Z VDD VNW VPW VSS
.ends

* Black-box entry subcircuit for gf180mcu_fd_sc_mcu9t5v0__addh_1 abstract view
.subckt gf180mcu_fd_sc_mcu9t5v0__addh_1 A B CO S VDD VNW VPW VSS
.ends

* Black-box entry subcircuit for gf180mcu_fd_sc_mcu9t5v0__latrsnq_1 abstract view
.subckt gf180mcu_fd_sc_mcu9t5v0__latrsnq_1 D E RN SETN Q VDD VNW VPW VSS
.ends

* Black-box entry subcircuit for gf180mcu_fd_sc_mcu9t5v0__icgtn_1 abstract view
.subckt gf180mcu_fd_sc_mcu9t5v0__icgtn_1 CLKN E TE Q VDD VNW VPW VSS
.ends

* Black-box entry subcircuit for gf180mcu_fd_sc_mcu9t5v0__clkbuf_8 abstract view
.subckt gf180mcu_fd_sc_mcu9t5v0__clkbuf_8 I Z VDD VNW VPW VSS
.ends

* Black-box entry subcircuit for gf180mcu_fd_sc_mcu9t5v0__oai31_1 abstract view
.subckt gf180mcu_fd_sc_mcu9t5v0__oai31_1 A1 A2 A3 B ZN VDD VNW VPW VSS
.ends

* Black-box entry subcircuit for gf180mcu_fd_sc_mcu9t5v0__nor2_2 abstract view
.subckt gf180mcu_fd_sc_mcu9t5v0__nor2_2 A1 A2 ZN VDD VNW VPW VSS
.ends

* Black-box entry subcircuit for gf180mcu_fd_sc_mcu9t5v0__nand2_2 abstract view
.subckt gf180mcu_fd_sc_mcu9t5v0__nand2_2 A1 A2 ZN VDD VNW VPW VSS
.ends

* Black-box entry subcircuit for gf180mcu_fd_sc_mcu9t5v0__oai21_2 abstract view
.subckt gf180mcu_fd_sc_mcu9t5v0__oai21_2 A1 A2 B ZN VDD VNW VPW VSS
.ends

* Black-box entry subcircuit for gf180mcu_fd_sc_mcu9t5v0__invz_3 abstract view
.subckt gf180mcu_fd_sc_mcu9t5v0__invz_3 EN I ZN VDD VNW VPW VSS
.ends

* Black-box entry subcircuit for gf180mcu_fd_sc_mcu9t5v0__sdffrsnq_2 abstract view
.subckt gf180mcu_fd_sc_mcu9t5v0__sdffrsnq_2 D RN SE SETN SI CLK Q VDD VNW VPW VSS
.ends
