* NGSPICE file created from input_mux.ext - technology: gf180mcuD

* Black-box entry subcircuit for gf180mcu_fd_sc_mcu7t5v0__fillcap_64 abstract view
.subckt gf180mcu_fd_sc_mcu7t5v0__fillcap_64 VDD VNW VPW VSS
.ends

* Black-box entry subcircuit for gf180mcu_fd_sc_mcu7t5v0__fillcap_8 abstract view
.subckt gf180mcu_fd_sc_mcu7t5v0__fillcap_8 VDD VNW VPW VSS
.ends

* Black-box entry subcircuit for gf180mcu_fd_sc_mcu7t5v0__fillcap_4 abstract view
.subckt gf180mcu_fd_sc_mcu7t5v0__fillcap_4 VDD VNW VPW VSS
.ends

* Black-box entry subcircuit for gf180mcu_fd_sc_mcu7t5v0__clkbuf_1 abstract view
.subckt gf180mcu_fd_sc_mcu7t5v0__clkbuf_1 I Z VDD VNW VPW VSS
.ends

* Black-box entry subcircuit for gf180mcu_fd_sc_mcu7t5v0__filltie abstract view
.subckt gf180mcu_fd_sc_mcu7t5v0__filltie VDD VSS
.ends

* Black-box entry subcircuit for gf180mcu_fd_sc_mcu7t5v0__fill_2 abstract view
.subckt gf180mcu_fd_sc_mcu7t5v0__fill_2 VDD VNW VPW VSS
.ends

* Black-box entry subcircuit for gf180mcu_fd_sc_mcu7t5v0__fillcap_16 abstract view
.subckt gf180mcu_fd_sc_mcu7t5v0__fillcap_16 VDD VNW VPW VSS
.ends

* Black-box entry subcircuit for gf180mcu_fd_sc_mcu7t5v0__and2_1 abstract view
.subckt gf180mcu_fd_sc_mcu7t5v0__and2_1 A1 A2 Z VDD VNW VPW VSS
.ends

* Black-box entry subcircuit for gf180mcu_fd_sc_mcu7t5v0__and3_1 abstract view
.subckt gf180mcu_fd_sc_mcu7t5v0__and3_1 A1 A2 A3 Z VDD VNW VPW VSS
.ends

* Black-box entry subcircuit for gf180mcu_fd_sc_mcu7t5v0__fill_1 abstract view
.subckt gf180mcu_fd_sc_mcu7t5v0__fill_1 VDD VNW VPW VSS
.ends

* Black-box entry subcircuit for gf180mcu_fd_sc_mcu7t5v0__antenna abstract view
.subckt gf180mcu_fd_sc_mcu7t5v0__antenna I VDD VNW VPW VSS
.ends

* Black-box entry subcircuit for gf180mcu_fd_sc_mcu7t5v0__fillcap_32 abstract view
.subckt gf180mcu_fd_sc_mcu7t5v0__fillcap_32 VDD VNW VPW VSS
.ends

* Black-box entry subcircuit for gf180mcu_fd_sc_mcu7t5v0__endcap abstract view
.subckt gf180mcu_fd_sc_mcu7t5v0__endcap VDD VSS
.ends

* Black-box entry subcircuit for gf180mcu_fd_sc_mcu7t5v0__buf_1 abstract view
.subckt gf180mcu_fd_sc_mcu7t5v0__buf_1 I Z VDD VNW VPW VSS
.ends

* Black-box entry subcircuit for gf180mcu_fd_sc_mcu7t5v0__nand3_1 abstract view
.subckt gf180mcu_fd_sc_mcu7t5v0__nand3_1 A1 A2 A3 ZN VDD VNW VPW VSS
.ends

* Black-box entry subcircuit for gf180mcu_fd_sc_mcu7t5v0__or3_1 abstract view
.subckt gf180mcu_fd_sc_mcu7t5v0__or3_1 A1 A2 A3 Z VDD VNW VPW VSS
.ends

* Black-box entry subcircuit for gf180mcu_fd_sc_mcu7t5v0__clkinv_1 abstract view
.subckt gf180mcu_fd_sc_mcu7t5v0__clkinv_1 I ZN VDD VNW VPW VSS
.ends

* Black-box entry subcircuit for gf180mcu_fd_sc_mcu7t5v0__clkbuf_16 abstract view
.subckt gf180mcu_fd_sc_mcu7t5v0__clkbuf_16 I Z VDD VNW VPW VSS
.ends

* Black-box entry subcircuit for gf180mcu_fd_sc_mcu7t5v0__nor2_1 abstract view
.subckt gf180mcu_fd_sc_mcu7t5v0__nor2_1 A1 A2 ZN VDD VNW VPW VSS
.ends

* Black-box entry subcircuit for gf180mcu_fd_sc_mcu7t5v0__dffq_1 abstract view
.subckt gf180mcu_fd_sc_mcu7t5v0__dffq_1 D CLK Q VDD VNW VPW VSS
.ends

.subckt input_mux clk in[0] in[10] in[11] in[12] in[13] in[14] in[15] in[16] in[17]
+ in[18] in[1] in[2] in[3] in[4] in[5] in[6] in[7] in[8] in[9] proj_clk[0] proj_clk[1]
+ proj_clk[2] proj_clk[3] proj_in[0] proj_in[10] proj_in[11] proj_in[12] proj_in[13]
+ proj_in[14] proj_in[15] proj_in[16] proj_in[17] proj_in[18] proj_in[19] proj_in[1]
+ proj_in[20] proj_in[21] proj_in[22] proj_in[23] proj_in[24] proj_in[25] proj_in[26]
+ proj_in[27] proj_in[28] proj_in[29] proj_in[2] proj_in[30] proj_in[31] proj_in[32]
+ proj_in[33] proj_in[34] proj_in[35] proj_in[36] proj_in[37] proj_in[38] proj_in[39]
+ proj_in[3] proj_in[40] proj_in[41] proj_in[42] proj_in[43] proj_in[44] proj_in[45]
+ proj_in[46] proj_in[47] proj_in[48] proj_in[49] proj_in[4] proj_in[50] proj_in[51]
+ proj_in[52] proj_in[53] proj_in[54] proj_in[55] proj_in[56] proj_in[57] proj_in[58]
+ proj_in[59] proj_in[5] proj_in[60] proj_in[61] proj_in[62] proj_in[63] proj_in[64]
+ proj_in[65] proj_in[66] proj_in[67] proj_in[68] proj_in[69] proj_in[6] proj_in[70]
+ proj_in[71] proj_in[72] proj_in[73] proj_in[74] proj_in[75] proj_in[7] proj_in[8]
+ proj_in[9] proj_rst_n[0] proj_rst_n[1] proj_rst_n[2] proj_rst_n[3] rst_n sel[0]
+ sel[1] vdd vss
XFILLER_0_32_247 vdd vdd vss vss gf180mcu_fd_sc_mcu7t5v0__fillcap_64
XFILLER_0_27_60 vdd vdd vss vss gf180mcu_fd_sc_mcu7t5v0__fillcap_8
XFILLER_0_4_171 vdd vdd vss vss gf180mcu_fd_sc_mcu7t5v0__fillcap_4
X_294_ _103_ net87 vdd vdd vss vss gf180mcu_fd_sc_mcu7t5v0__clkbuf_1
XTAP_TAPCELL_ROW_23_194 vdd vss gf180mcu_fd_sc_mcu7t5v0__filltie
XFILLER_0_14_247 vdd vdd vss vss gf180mcu_fd_sc_mcu7t5v0__fill_2
XTAP_TAPCELL_ROW_6_118 vdd vss gf180mcu_fd_sc_mcu7t5v0__filltie
XTAP_TAPCELL_ROW_28_220 vdd vss gf180mcu_fd_sc_mcu7t5v0__filltie
XFILLER_0_28_317 vdd vdd vss vss gf180mcu_fd_sc_mcu7t5v0__fillcap_4
XFILLER_0_20_239 vdd vdd vss vss gf180mcu_fd_sc_mcu7t5v0__fill_2
XFILLER_0_18_18 vdd vdd vss vss gf180mcu_fd_sc_mcu7t5v0__fillcap_16
XTAP_TAPCELL_ROW_34_245 vdd vss gf180mcu_fd_sc_mcu7t5v0__filltie
X_277_ _093_ _094_ vdd vdd vss vss gf180mcu_fd_sc_mcu7t5v0__clkbuf_1
XTAP_TAPCELL_ROW_11_142 vdd vss gf180mcu_fd_sc_mcu7t5v0__filltie
XFILLER_0_11_206 vdd vdd vss vss gf180mcu_fd_sc_mcu7t5v0__fillcap_4
XFILLER_0_37_136 vdd vdd vss vss gf180mcu_fd_sc_mcu7t5v0__fillcap_4
X_131_ net1 _004_ _005_ vdd vdd vss vss gf180mcu_fd_sc_mcu7t5v0__and2_1
X_200_ net19 _043_ _044_ _046_ vdd vdd vss vss gf180mcu_fd_sc_mcu7t5v0__and3_1
X_329_ _122_ net103 vdd vdd vss vss gf180mcu_fd_sc_mcu7t5v0__clkbuf_1
XFILLER_0_42_172 vdd vdd vss vss gf180mcu_fd_sc_mcu7t5v0__fill_2
XFILLER_0_19_72 vdd vdd vss vss gf180mcu_fd_sc_mcu7t5v0__fillcap_8
XFILLER_0_18_191 vdd vdd vss vss gf180mcu_fd_sc_mcu7t5v0__fill_1
XFILLER_0_21_40 vdd vdd vss vss gf180mcu_fd_sc_mcu7t5v0__fillcap_16
XFILLER_0_8_317 vdd vdd vss vss gf180mcu_fd_sc_mcu7t5v0__fillcap_4
XANTENNA_output67_I net67 vdd vdd vss vss gf180mcu_fd_sc_mcu7t5v0__antenna
XFILLER_0_1_72 vdd vdd vss vss gf180mcu_fd_sc_mcu7t5v0__fillcap_32
XPHY_EDGE_ROW_16_Left_59 vdd vss gf180mcu_fd_sc_mcu7t5v0__endcap
XFILLER_0_13_8 vdd vdd vss vss gf180mcu_fd_sc_mcu7t5v0__fill_2
XFILLER_0_35_212 vdd vdd vss vss gf180mcu_fd_sc_mcu7t5v0__fillcap_64
Xoutput86 net86 proj_in[63] vdd vdd vss vss gf180mcu_fd_sc_mcu7t5v0__clkbuf_1
Xoutput64 net64 proj_in[43] vdd vdd vss vss gf180mcu_fd_sc_mcu7t5v0__clkbuf_1
XFILLER_0_26_212 vdd vdd vss vss gf180mcu_fd_sc_mcu7t5v0__fill_2
Xoutput42 net42 proj_in[23] vdd vdd vss vss gf180mcu_fd_sc_mcu7t5v0__clkbuf_1
Xoutput97 net97 proj_in[73] vdd vdd vss vss gf180mcu_fd_sc_mcu7t5v0__clkbuf_1
Xoutput75 net75 proj_in[53] vdd vdd vss vss gf180mcu_fd_sc_mcu7t5v0__clkbuf_1
Xoutput53 net53 proj_in[33] vdd vdd vss vss gf180mcu_fd_sc_mcu7t5v0__clkbuf_1
Xoutput31 net31 proj_in[13] vdd vdd vss vss gf180mcu_fd_sc_mcu7t5v0__clkbuf_1
XFILLER_0_27_72 vdd vdd vss vss gf180mcu_fd_sc_mcu7t5v0__fillcap_64
XTAP_TAPCELL_ROW_17_170 vdd vss gf180mcu_fd_sc_mcu7t5v0__filltie
X_293_ net17 _099_ _103_ vdd vdd vss vss gf180mcu_fd_sc_mcu7t5v0__and2_1
XTAP_TAPCELL_ROW_23_195 vdd vss gf180mcu_fd_sc_mcu7t5v0__filltie
XFILLER_0_1_142 vdd vdd vss vss gf180mcu_fd_sc_mcu7t5v0__fillcap_64
XFILLER_0_1_120 vdd vdd vss vss gf180mcu_fd_sc_mcu7t5v0__fillcap_8
XTAP_TAPCELL_ROW_6_119 vdd vss gf180mcu_fd_sc_mcu7t5v0__filltie
XFILLER_0_37_318 vdd vdd vss vss gf180mcu_fd_sc_mcu7t5v0__fill_1
XPHY_EDGE_ROW_19_Left_62 vdd vss gf180mcu_fd_sc_mcu7t5v0__endcap
XTAP_TAPCELL_ROW_34_246 vdd vss gf180mcu_fd_sc_mcu7t5v0__filltie
X_276_ _092_ _093_ vdd vdd vss vss gf180mcu_fd_sc_mcu7t5v0__buf_1
XTAP_TAPCELL_ROW_11_143 vdd vss gf180mcu_fd_sc_mcu7t5v0__filltie
XFILLER_0_42_310 vdd vdd vss vss gf180mcu_fd_sc_mcu7t5v0__fill_1
X_130_ _003_ _004_ vdd vdd vss vss gf180mcu_fd_sc_mcu7t5v0__clkbuf_1
XPHY_EDGE_ROW_21_Right_21 vdd vss gf180mcu_fd_sc_mcu7t5v0__endcap
XANTENNA__229__A1 net1 vdd vdd vss vss gf180mcu_fd_sc_mcu7t5v0__antenna
XTAP_TAPCELL_ROW_2_100 vdd vss gf180mcu_fd_sc_mcu7t5v0__filltie
XPHY_EDGE_ROW_4_Left_47 vdd vss gf180mcu_fd_sc_mcu7t5v0__endcap
XPHY_EDGE_ROW_12_Right_12 vdd vss gf180mcu_fd_sc_mcu7t5v0__endcap
XPHY_EDGE_ROW_30_Right_30 vdd vss gf180mcu_fd_sc_mcu7t5v0__endcap
X_328_ net20 _024_ _122_ vdd vdd vss vss gf180mcu_fd_sc_mcu7t5v0__and2_1
X_259_ net4 _081_ _082_ _083_ vdd vdd vss vss gf180mcu_fd_sc_mcu7t5v0__and3_1
XFILLER_0_35_72 vdd vdd vss vss gf180mcu_fd_sc_mcu7t5v0__fillcap_64
XFILLER_0_34_107 vdd vdd vss vss gf180mcu_fd_sc_mcu7t5v0__fillcap_64
XFILLER_0_27_192 vdd vdd vss vss gf180mcu_fd_sc_mcu7t5v0__fill_1
XFILLER_0_19_40 vdd vdd vss vss gf180mcu_fd_sc_mcu7t5v0__fillcap_16
XTAP_TAPCELL_ROW_0_90 vdd vss gf180mcu_fd_sc_mcu7t5v0__filltie
XFILLER_0_21_324 vdd vdd vss vss gf180mcu_fd_sc_mcu7t5v0__fill_1
XFILLER_0_16_107 vdd vdd vss vss gf180mcu_fd_sc_mcu7t5v0__fill_1
XFILLER_0_21_176 vdd vdd vss vss gf180mcu_fd_sc_mcu7t5v0__fill_2
XPHY_EDGE_ROW_7_Left_50 vdd vss gf180mcu_fd_sc_mcu7t5v0__endcap
XANTENNA_input11_I in[1] vdd vdd vss vss gf180mcu_fd_sc_mcu7t5v0__antenna
XFILLER_0_29_276 vdd vdd vss vss gf180mcu_fd_sc_mcu7t5v0__fillcap_4
XFILLER_0_4_321 vdd vdd vss vss gf180mcu_fd_sc_mcu7t5v0__fill_2
XPHY_EDGE_ROW_6_Right_6 vdd vss gf180mcu_fd_sc_mcu7t5v0__endcap
XFILLER_0_12_187 vdd vdd vss vss gf180mcu_fd_sc_mcu7t5v0__fillcap_4
Xoutput87 net87 proj_in[64] vdd vdd vss vss gf180mcu_fd_sc_mcu7t5v0__clkbuf_1
XPHY_EDGE_ROW_33_Left_76 vdd vss gf180mcu_fd_sc_mcu7t5v0__endcap
Xoutput43 net43 proj_in[24] vdd vdd vss vss gf180mcu_fd_sc_mcu7t5v0__clkbuf_1
Xoutput65 net65 proj_in[44] vdd vdd vss vss gf180mcu_fd_sc_mcu7t5v0__clkbuf_1
Xoutput76 net76 proj_in[54] vdd vdd vss vss gf180mcu_fd_sc_mcu7t5v0__clkbuf_1
Xoutput98 net98 proj_in[74] vdd vdd vss vss gf180mcu_fd_sc_mcu7t5v0__clkbuf_1
Xoutput54 net54 proj_in[34] vdd vdd vss vss gf180mcu_fd_sc_mcu7t5v0__clkbuf_1
Xoutput32 net32 proj_in[14] vdd vdd vss vss gf180mcu_fd_sc_mcu7t5v0__clkbuf_1
XFILLER_0_9_2 vdd vdd vss vss gf180mcu_fd_sc_mcu7t5v0__fillcap_64
XFILLER_0_41_205 vdd vdd vss vss gf180mcu_fd_sc_mcu7t5v0__fillcap_4
XFILLER_0_17_279 vdd vdd vss vss gf180mcu_fd_sc_mcu7t5v0__fill_1
XANTENNA_input3_I in[11] vdd vdd vss vss gf180mcu_fd_sc_mcu7t5v0__antenna
X_292_ _102_ net86 vdd vdd vss vss gf180mcu_fd_sc_mcu7t5v0__clkbuf_1
XTAP_TAPCELL_ROW_23_196 vdd vss gf180mcu_fd_sc_mcu7t5v0__filltie
XFILLER_0_23_216 vdd vdd vss vss gf180mcu_fd_sc_mcu7t5v0__fill_1
XFILLER_0_7_72 vdd vdd vss vss gf180mcu_fd_sc_mcu7t5v0__fillcap_64
XFILLER_0_31_282 vdd vdd vss vss gf180mcu_fd_sc_mcu7t5v0__fillcap_32
XFILLER_0_22_293 vdd vdd vss vss gf180mcu_fd_sc_mcu7t5v0__fillcap_16
XFILLER_0_14_249 vdd vdd vss vss gf180mcu_fd_sc_mcu7t5v0__fill_1
XFILLER_0_14_227 vdd vdd vss vss gf180mcu_fd_sc_mcu7t5v0__fill_2
XFILLER_0_1_132 vdd vdd vss vss gf180mcu_fd_sc_mcu7t5v0__fill_1
XANTENNA__192__A1 net16 vdd vdd vss vss gf180mcu_fd_sc_mcu7t5v0__antenna
XFILLER_0_9_276 vdd vdd vss vss gf180mcu_fd_sc_mcu7t5v0__fillcap_4
XFILLER_0_13_282 vdd vdd vss vss gf180mcu_fd_sc_mcu7t5v0__fillcap_32
X_275_ net22 net21 _092_ vdd vdd vss vss gf180mcu_fd_sc_mcu7t5v0__and2_1
XTAP_TAPCELL_ROW_42_280 vdd vss gf180mcu_fd_sc_mcu7t5v0__filltie
XTAP_TAPCELL_ROW_34_247 vdd vss gf180mcu_fd_sc_mcu7t5v0__filltie
XTAP_TAPCELL_ROW_25_203 vdd vss gf180mcu_fd_sc_mcu7t5v0__filltie
XFILLER_0_24_30 vdd vdd vss vss gf180mcu_fd_sc_mcu7t5v0__fillcap_4
XPHY_EDGE_ROW_20_Left_63 vdd vss gf180mcu_fd_sc_mcu7t5v0__endcap
XTAP_TAPCELL_ROW_2_101 vdd vss gf180mcu_fd_sc_mcu7t5v0__filltie
XFILLER_0_10_241 vdd vdd vss vss gf180mcu_fd_sc_mcu7t5v0__fillcap_4
XFILLER_0_33_322 vdd vdd vss vss gf180mcu_fd_sc_mcu7t5v0__fill_2
XFILLER_0_36_171 vdd vdd vss vss gf180mcu_fd_sc_mcu7t5v0__fillcap_4
X_189_ _039_ net42 vdd vdd vss vss gf180mcu_fd_sc_mcu7t5v0__clkbuf_1
X_258_ _063_ _082_ vdd vdd vss vss gf180mcu_fd_sc_mcu7t5v0__clkbuf_1
X_327_ sel_latched\[1\] sel_latched\[0\] net107 net26 vdd vdd vss vss gf180mcu_fd_sc_mcu7t5v0__nand3_1
XTAP_TAPCELL_ROW_0_91 vdd vss gf180mcu_fd_sc_mcu7t5v0__filltie
XFILLER_0_42_174 vdd vdd vss vss gf180mcu_fd_sc_mcu7t5v0__fill_1
XFILLER_0_15_322 vdd vdd vss vss gf180mcu_fd_sc_mcu7t5v0__fill_2
XFILLER_0_21_314 vdd vdd vss vss gf180mcu_fd_sc_mcu7t5v0__fillcap_8
XFILLER_0_21_86 vdd vdd vss vss gf180mcu_fd_sc_mcu7t5v0__fill_2
XFILLER_0_21_64 vdd vdd vss vss gf180mcu_fd_sc_mcu7t5v0__fillcap_4
XFILLER_0_30_177 vdd vdd vss vss gf180mcu_fd_sc_mcu7t5v0__fillcap_64
XFILLER_0_21_188 vdd vdd vss vss gf180mcu_fd_sc_mcu7t5v0__fill_2
XFILLER_0_32_2 vdd vdd vss vss gf180mcu_fd_sc_mcu7t5v0__fillcap_32
XFILLER_0_4_311 vdd vdd vss vss gf180mcu_fd_sc_mcu7t5v0__fillcap_4
XFILLER_0_12_166 vdd vdd vss vss gf180mcu_fd_sc_mcu7t5v0__fillcap_8
XFILLER_0_12_177 vdd vdd vss vss gf180mcu_fd_sc_mcu7t5v0__fill_2
Xoutput44 net44 proj_in[25] vdd vdd vss vss gf180mcu_fd_sc_mcu7t5v0__clkbuf_1
Xoutput66 net66 proj_in[45] vdd vdd vss vss gf180mcu_fd_sc_mcu7t5v0__clkbuf_1
Xoutput55 net55 proj_in[35] vdd vdd vss vss gf180mcu_fd_sc_mcu7t5v0__clkbuf_1
Xoutput77 net77 proj_in[55] vdd vdd vss vss gf180mcu_fd_sc_mcu7t5v0__clkbuf_1
Xoutput99 net99 proj_in[75] vdd vdd vss vss gf180mcu_fd_sc_mcu7t5v0__clkbuf_1
Xoutput33 net33 proj_in[15] vdd vdd vss vss gf180mcu_fd_sc_mcu7t5v0__clkbuf_1
XANTENNA_output72_I net72 vdd vdd vss vss gf180mcu_fd_sc_mcu7t5v0__antenna
Xoutput88 net88 proj_in[65] vdd vdd vss vss gf180mcu_fd_sc_mcu7t5v0__clkbuf_1
XFILLER_0_1_314 vdd vdd vss vss gf180mcu_fd_sc_mcu7t5v0__fillcap_8
X_291_ net16 _099_ _102_ vdd vdd vss vss gf180mcu_fd_sc_mcu7t5v0__and2_1
XTAP_TAPCELL_ROW_23_197 vdd vss gf180mcu_fd_sc_mcu7t5v0__filltie
XFILLER_0_23_239 vdd vdd vss vss gf180mcu_fd_sc_mcu7t5v0__fill_2
XFILLER_0_14_239 vdd vdd vss vss gf180mcu_fd_sc_mcu7t5v0__fill_2
XTAP_TAPCELL_ROW_14_153 vdd vss gf180mcu_fd_sc_mcu7t5v0__filltie
XFILLER_0_22_261 vdd vdd vss vss gf180mcu_fd_sc_mcu7t5v0__fillcap_32
XFILLER_0_13_250 vdd vdd vss vss gf180mcu_fd_sc_mcu7t5v0__fillcap_16
XFILLER_0_28_309 vdd vdd vss vss gf180mcu_fd_sc_mcu7t5v0__fillcap_4
X_274_ _091_ net78 vdd vdd vss vss gf180mcu_fd_sc_mcu7t5v0__clkbuf_1
XTAP_TAPCELL_ROW_42_281 vdd vss gf180mcu_fd_sc_mcu7t5v0__filltie
XTAP_TAPCELL_ROW_2_102 vdd vss gf180mcu_fd_sc_mcu7t5v0__filltie
XFILLER_0_6_247 vdd vdd vss vss gf180mcu_fd_sc_mcu7t5v0__fillcap_64
XTAP_TAPCELL_ROW_25_204 vdd vss gf180mcu_fd_sc_mcu7t5v0__filltie
XFILLER_0_29_8 vdd vdd vss vss gf180mcu_fd_sc_mcu7t5v0__fill_2
XFILLER_0_28_139 vdd vdd vss vss gf180mcu_fd_sc_mcu7t5v0__fillcap_4
XFILLER_0_24_301 vdd vdd vss vss gf180mcu_fd_sc_mcu7t5v0__fillcap_8
X_188_ net14 _037_ _038_ _039_ vdd vdd vss vss gf180mcu_fd_sc_mcu7t5v0__and3_1
X_257_ _060_ _081_ vdd vdd vss vss gf180mcu_fd_sc_mcu7t5v0__clkbuf_1
XFILLER_0_19_64 vdd vdd vss vss gf180mcu_fd_sc_mcu7t5v0__fillcap_4
XTAP_TAPCELL_ROW_0_92 vdd vss gf180mcu_fd_sc_mcu7t5v0__filltie
XFILLER_0_3_206 vdd vdd vss vss gf180mcu_fd_sc_mcu7t5v0__fillcap_4
X_326_ sel_latched\[1\] _119_ net108 net25 vdd vdd vss vss gf180mcu_fd_sc_mcu7t5v0__nand3_1
XFILLER_0_19_106 vdd vdd vss vss gf180mcu_fd_sc_mcu7t5v0__fill_2
XFILLER_0_33_142 vdd vdd vss vss gf180mcu_fd_sc_mcu7t5v0__fillcap_64
X_309_ net6 _109_ _112_ vdd vdd vss vss gf180mcu_fd_sc_mcu7t5v0__and2_1
XFILLER_0_30_101 vdd vdd vss vss gf180mcu_fd_sc_mcu7t5v0__fillcap_4
XFILLER_0_24_131 vdd vdd vss vss gf180mcu_fd_sc_mcu7t5v0__fillcap_4
XFILLER_0_29_212 vdd vdd vss vss gf180mcu_fd_sc_mcu7t5v0__fillcap_64
XFILLER_0_16_32 vdd vdd vss vss gf180mcu_fd_sc_mcu7t5v0__fill_2
XFILLER_0_12_101 vdd vdd vss vss gf180mcu_fd_sc_mcu7t5v0__fillcap_4
Xoutput45 net45 proj_in[26] vdd vdd vss vss gf180mcu_fd_sc_mcu7t5v0__clkbuf_1
Xoutput56 net56 proj_in[36] vdd vdd vss vss gf180mcu_fd_sc_mcu7t5v0__clkbuf_1
Xoutput34 net34 proj_in[16] vdd vdd vss vss gf180mcu_fd_sc_mcu7t5v0__clkbuf_1
XANTENNA__210__A1 net5 vdd vdd vss vss gf180mcu_fd_sc_mcu7t5v0__antenna
Xoutput78 net78 proj_in[56] vdd vdd vss vss gf180mcu_fd_sc_mcu7t5v0__clkbuf_1
Xoutput67 net67 proj_in[46] vdd vdd vss vss gf180mcu_fd_sc_mcu7t5v0__clkbuf_1
Xoutput89 net89 proj_in[66] vdd vdd vss vss gf180mcu_fd_sc_mcu7t5v0__clkbuf_1
Xoutput23 net23 proj_clk[0] vdd vdd vss vss gf180mcu_fd_sc_mcu7t5v0__buf_1
XFILLER_0_41_218 vdd vdd vss vss gf180mcu_fd_sc_mcu7t5v0__fillcap_32
XANTENNA_output103_I net103 vdd vdd vss vss gf180mcu_fd_sc_mcu7t5v0__antenna
XANTENNA__259__A1 net4 vdd vdd vss vss gf180mcu_fd_sc_mcu7t5v0__antenna
XFILLER_0_17_226 vdd vdd vss vss gf180mcu_fd_sc_mcu7t5v0__fill_2
X_290_ _101_ net85 vdd vdd vss vss gf180mcu_fd_sc_mcu7t5v0__clkbuf_1
XTAP_TAPCELL_ROW_8_130 vdd vss gf180mcu_fd_sc_mcu7t5v0__filltie
XFILLER_0_13_44 vdd vdd vss vss gf180mcu_fd_sc_mcu7t5v0__fillcap_16
XTAP_TAPCELL_ROW_14_154 vdd vss gf180mcu_fd_sc_mcu7t5v0__filltie
XTAP_TAPCELL_ROW_37_257 vdd vss gf180mcu_fd_sc_mcu7t5v0__filltie
XFILLER_0_9_212 vdd vdd vss vss gf180mcu_fd_sc_mcu7t5v0__fillcap_64
X_273_ net10 _087_ _088_ _091_ vdd vdd vss vss gf180mcu_fd_sc_mcu7t5v0__and3_1
XFILLER_0_42_302 vdd vdd vss vss gf180mcu_fd_sc_mcu7t5v0__fill_2
XTAP_TAPCELL_ROW_42_282 vdd vss gf180mcu_fd_sc_mcu7t5v0__filltie
XFILLER_0_33_324 vdd vdd vss vss gf180mcu_fd_sc_mcu7t5v0__fill_1
XTAP_TAPCELL_ROW_25_205 vdd vss gf180mcu_fd_sc_mcu7t5v0__filltie
XTAP_TAPCELL_ROW_2_103 vdd vss gf180mcu_fd_sc_mcu7t5v0__filltie
XFILLER_0_28_107 vdd vdd vss vss gf180mcu_fd_sc_mcu7t5v0__fillcap_32
XFILLER_0_24_313 vdd vdd vss vss gf180mcu_fd_sc_mcu7t5v0__fill_2
X_187_ _031_ _038_ vdd vdd vss vss gf180mcu_fd_sc_mcu7t5v0__clkbuf_1
X_256_ _080_ net70 vdd vdd vss vss gf180mcu_fd_sc_mcu7t5v0__clkbuf_1
XTAP_TAPCELL_ROW_0_93 vdd vss gf180mcu_fd_sc_mcu7t5v0__filltie
XFILLER_0_10_34 vdd vdd vss vss gf180mcu_fd_sc_mcu7t5v0__fill_1
XFILLER_0_27_184 vdd vdd vss vss gf180mcu_fd_sc_mcu7t5v0__fill_2
XFILLER_0_27_173 vdd vdd vss vss gf180mcu_fd_sc_mcu7t5v0__fill_1
XFILLER_0_15_324 vdd vdd vss vss gf180mcu_fd_sc_mcu7t5v0__fill_1
XFILLER_0_18_162 vdd vdd vss vss gf180mcu_fd_sc_mcu7t5v0__fill_1
X_239_ net14 _069_ _070_ _071_ vdd vdd vss vss gf180mcu_fd_sc_mcu7t5v0__and3_1
X_308_ _111_ net94 vdd vdd vss vss gf180mcu_fd_sc_mcu7t5v0__clkbuf_1
XFILLER_0_15_110 vdd vdd vss vss gf180mcu_fd_sc_mcu7t5v0__fill_1
XFILLER_0_21_168 vdd vdd vss vss gf180mcu_fd_sc_mcu7t5v0__fill_2
XFILLER_0_8_107 vdd vdd vss vss gf180mcu_fd_sc_mcu7t5v0__fillcap_64
Xoutput35 net35 proj_in[17] vdd vdd vss vss gf180mcu_fd_sc_mcu7t5v0__clkbuf_1
Xoutput57 net57 proj_in[37] vdd vdd vss vss gf180mcu_fd_sc_mcu7t5v0__clkbuf_1
Xoutput46 net46 proj_in[27] vdd vdd vss vss gf180mcu_fd_sc_mcu7t5v0__clkbuf_1
XFILLER_0_20_190 vdd vdd vss vss gf180mcu_fd_sc_mcu7t5v0__fill_1
Xoutput24 net24 proj_clk[1] vdd vdd vss vss gf180mcu_fd_sc_mcu7t5v0__buf_1
Xoutput79 net79 proj_in[57] vdd vdd vss vss gf180mcu_fd_sc_mcu7t5v0__clkbuf_1
XPHY_EDGE_ROW_28_Right_28 vdd vss gf180mcu_fd_sc_mcu7t5v0__endcap
XFILLER_0_26_216 vdd vdd vss vss gf180mcu_fd_sc_mcu7t5v0__fill_1
XPHY_EDGE_ROW_19_Right_19 vdd vss gf180mcu_fd_sc_mcu7t5v0__endcap
Xoutput68 net68 proj_in[47] vdd vdd vss vss gf180mcu_fd_sc_mcu7t5v0__clkbuf_1
XFILLER_0_40_241 vdd vdd vss vss gf180mcu_fd_sc_mcu7t5v0__fillcap_4
XPHY_EDGE_ROW_37_Right_37 vdd vss gf180mcu_fd_sc_mcu7t5v0__endcap
XFILLER_0_25_282 vdd vdd vss vss gf180mcu_fd_sc_mcu7t5v0__fillcap_32
XFILLER_0_7_2 vdd vdd vss vss gf180mcu_fd_sc_mcu7t5v0__fillcap_64
XANTENNA_input1_I in[0] vdd vdd vss vss gf180mcu_fd_sc_mcu7t5v0__antenna
XTAP_TAPCELL_ROW_37_258 vdd vss gf180mcu_fd_sc_mcu7t5v0__filltie
XFILLER_0_22_241 vdd vdd vss vss gf180mcu_fd_sc_mcu7t5v0__fillcap_4
XTAP_TAPCELL_ROW_14_155 vdd vss gf180mcu_fd_sc_mcu7t5v0__filltie
XFILLER_0_13_12 vdd vdd vss vss gf180mcu_fd_sc_mcu7t5v0__fillcap_32
XFILLER_0_36_311 vdd vdd vss vss gf180mcu_fd_sc_mcu7t5v0__fill_2
X_272_ _090_ net77 vdd vdd vss vss gf180mcu_fd_sc_mcu7t5v0__clkbuf_1
XFILLER_0_13_274 vdd vdd vss vss gf180mcu_fd_sc_mcu7t5v0__fillcap_4
XTAP_TAPCELL_ROW_42_283 vdd vss gf180mcu_fd_sc_mcu7t5v0__filltie
XFILLER_0_27_322 vdd vdd vss vss gf180mcu_fd_sc_mcu7t5v0__fill_2
XFILLER_0_33_314 vdd vdd vss vss gf180mcu_fd_sc_mcu7t5v0__fillcap_8
XTAP_TAPCELL_ROW_25_206 vdd vss gf180mcu_fd_sc_mcu7t5v0__filltie
XFILLER_0_18_311 vdd vdd vss vss gf180mcu_fd_sc_mcu7t5v0__fillcap_4
XFILLER_0_5_282 vdd vdd vss vss gf180mcu_fd_sc_mcu7t5v0__fillcap_32
XPHY_EDGE_ROW_24_Left_67 vdd vss gf180mcu_fd_sc_mcu7t5v0__endcap
X_186_ _029_ _037_ vdd vdd vss vss gf180mcu_fd_sc_mcu7t5v0__clkbuf_1
X_255_ net3 _075_ _076_ _080_ vdd vdd vss vss gf180mcu_fd_sc_mcu7t5v0__and3_1
X_324_ _120_ net24 vdd vdd vss vss gf180mcu_fd_sc_mcu7t5v0__buf_1
XFILLER_0_42_199 vdd vdd vss vss gf180mcu_fd_sc_mcu7t5v0__fillcap_4
XFILLER_0_30_317 vdd vdd vss vss gf180mcu_fd_sc_mcu7t5v0__fill_2
XFILLER_0_15_314 vdd vdd vss vss gf180mcu_fd_sc_mcu7t5v0__fillcap_8
XFILLER_0_2_241 vdd vdd vss vss gf180mcu_fd_sc_mcu7t5v0__fillcap_4
XTAP_TAPCELL_ROW_0_94 vdd vss gf180mcu_fd_sc_mcu7t5v0__filltie
XFILLER_0_24_177 vdd vdd vss vss gf180mcu_fd_sc_mcu7t5v0__fill_2
X_238_ _063_ _070_ vdd vdd vss vss gf180mcu_fd_sc_mcu7t5v0__clkbuf_1
X_169_ net9 _024_ _026_ vdd vdd vss vss gf180mcu_fd_sc_mcu7t5v0__and2_1
XFILLER_0_21_56 vdd vdd vss vss gf180mcu_fd_sc_mcu7t5v0__fillcap_8
X_307_ net5 _109_ _111_ vdd vdd vss vss gf180mcu_fd_sc_mcu7t5v0__and2_1
XFILLER_0_12_317 vdd vdd vss vss gf180mcu_fd_sc_mcu7t5v0__fill_2
XFILLER_0_38_247 vdd vdd vss vss gf180mcu_fd_sc_mcu7t5v0__fillcap_64
XFILLER_0_1_66 vdd vdd vss vss gf180mcu_fd_sc_mcu7t5v0__fillcap_4
XFILLER_0_7_322 vdd vdd vss vss gf180mcu_fd_sc_mcu7t5v0__fill_2
XFILLER_0_16_34 vdd vdd vss vss gf180mcu_fd_sc_mcu7t5v0__fill_1
XFILLER_0_35_206 vdd vdd vss vss gf180mcu_fd_sc_mcu7t5v0__fillcap_4
XPHY_EDGE_ROW_27_Left_70 vdd vss gf180mcu_fd_sc_mcu7t5v0__endcap
XPHY_EDGE_ROW_11_Left_54 vdd vss gf180mcu_fd_sc_mcu7t5v0__endcap
XFILLER_0_41_209 vdd vdd vss vss gf180mcu_fd_sc_mcu7t5v0__fill_1
Xoutput58 net58 proj_in[38] vdd vdd vss vss gf180mcu_fd_sc_mcu7t5v0__clkbuf_1
Xoutput36 net36 proj_in[18] vdd vdd vss vss gf180mcu_fd_sc_mcu7t5v0__clkbuf_1
Xoutput47 net47 proj_in[28] vdd vdd vss vss gf180mcu_fd_sc_mcu7t5v0__clkbuf_1
Xoutput25 net25 proj_clk[2] vdd vdd vss vss gf180mcu_fd_sc_mcu7t5v0__buf_1
Xoutput69 net69 proj_in[48] vdd vdd vss vss gf180mcu_fd_sc_mcu7t5v0__clkbuf_1
XFILLER_0_27_44 vdd vdd vss vss gf180mcu_fd_sc_mcu7t5v0__fillcap_16
XFILLER_0_4_177 vdd vdd vss vss gf180mcu_fd_sc_mcu7t5v0__fillcap_64
XTAP_TAPCELL_ROW_14_156 vdd vss gf180mcu_fd_sc_mcu7t5v0__filltie
XFILLER_0_13_68 vdd vdd vss vss gf180mcu_fd_sc_mcu7t5v0__fill_2
XTAP_TAPCELL_ROW_37_259 vdd vss gf180mcu_fd_sc_mcu7t5v0__filltie
XTAP_TAPCELL_ROW_5_113 vdd vss gf180mcu_fd_sc_mcu7t5v0__filltie
XFILLER_0_24_34 vdd vdd vss vss gf180mcu_fd_sc_mcu7t5v0__fill_1
X_271_ net9 _087_ _088_ _090_ vdd vdd vss vss gf180mcu_fd_sc_mcu7t5v0__and3_1
XTAP_TAPCELL_ROW_42_284 vdd vss gf180mcu_fd_sc_mcu7t5v0__filltie
XTAP_TAPCELL_ROW_33_240 vdd vss gf180mcu_fd_sc_mcu7t5v0__filltie
X_185_ _036_ net41 vdd vdd vss vss gf180mcu_fd_sc_mcu7t5v0__clkbuf_1
X_254_ _079_ net69 vdd vdd vss vss gf180mcu_fd_sc_mcu7t5v0__clkbuf_1
X_323_ sel_latched\[1\] _119_ clknet_1_1__leaf_clk _120_ vdd vdd vss vss gf180mcu_fd_sc_mcu7t5v0__or3_1
XFILLER_0_42_112 vdd vdd vss vss gf180mcu_fd_sc_mcu7t5v0__fillcap_4
XFILLER_0_35_66 vdd vdd vss vss gf180mcu_fd_sc_mcu7t5v0__fillcap_4
XFILLER_0_27_142 vdd vdd vss vss gf180mcu_fd_sc_mcu7t5v0__fill_2
XFILLER_0_19_56 vdd vdd vss vss gf180mcu_fd_sc_mcu7t5v0__fillcap_8
XPHY_EDGE_ROW_41_Left_84 vdd vss gf180mcu_fd_sc_mcu7t5v0__endcap
XFILLER_0_18_153 vdd vdd vss vss gf180mcu_fd_sc_mcu7t5v0__fill_2
XFILLER_0_24_167 vdd vdd vss vss gf180mcu_fd_sc_mcu7t5v0__fill_2
XFILLER_0_24_123 vdd vdd vss vss gf180mcu_fd_sc_mcu7t5v0__fillcap_8
XFILLER_0_24_101 vdd vdd vss vss gf180mcu_fd_sc_mcu7t5v0__fillcap_4
XANTENNA__231__A1 net11 vdd vdd vss vss gf180mcu_fd_sc_mcu7t5v0__antenna
X_237_ _060_ _069_ vdd vdd vss vss gf180mcu_fd_sc_mcu7t5v0__clkbuf_1
XFILLER_0_21_68 vdd vdd vss vss gf180mcu_fd_sc_mcu7t5v0__fill_2
X_168_ _025_ net34 vdd vdd vss vss gf180mcu_fd_sc_mcu7t5v0__clkbuf_1
X_306_ _110_ net92 vdd vdd vss vss gf180mcu_fd_sc_mcu7t5v0__clkbuf_1
XANTENNA__298__A1 net19 vdd vdd vss vss gf180mcu_fd_sc_mcu7t5v0__antenna
XFILLER_0_27_8 vdd vdd vss vss gf180mcu_fd_sc_mcu7t5v0__fill_2
XANTENNA__289__A1 net15 vdd vdd vss vss gf180mcu_fd_sc_mcu7t5v0__antenna
XANTENNA__222__A1 net10 vdd vdd vss vss gf180mcu_fd_sc_mcu7t5v0__antenna
XFILLER_0_21_137 vdd vdd vss vss gf180mcu_fd_sc_mcu7t5v0__fill_2
XFILLER_0_16_24 vdd vdd vss vss gf180mcu_fd_sc_mcu7t5v0__fillcap_8
XFILLER_0_32_34 vdd vdd vss vss gf180mcu_fd_sc_mcu7t5v0__fill_1
Xoutput37 net37 proj_in[19] vdd vdd vss vss gf180mcu_fd_sc_mcu7t5v0__clkbuf_1
Xoutput59 net59 proj_in[39] vdd vdd vss vss gf180mcu_fd_sc_mcu7t5v0__clkbuf_1
XPHY_EDGE_ROW_1_Right_1 vdd vss gf180mcu_fd_sc_mcu7t5v0__endcap
Xoutput48 net48 proj_in[29] vdd vdd vss vss gf180mcu_fd_sc_mcu7t5v0__clkbuf_1
Xoutput26 net26 proj_clk[3] vdd vdd vss vss gf180mcu_fd_sc_mcu7t5v0__buf_1
XFILLER_0_7_142 vdd vdd vss vss gf180mcu_fd_sc_mcu7t5v0__fillcap_64
XFILLER_0_27_12 vdd vdd vss vss gf180mcu_fd_sc_mcu7t5v0__fillcap_32
XFILLER_0_4_101 vdd vdd vss vss gf180mcu_fd_sc_mcu7t5v0__fillcap_4
XFILLER_0_31_276 vdd vdd vss vss gf180mcu_fd_sc_mcu7t5v0__fillcap_4
XFILLER_0_16_240 vdd vdd vss vss gf180mcu_fd_sc_mcu7t5v0__fill_2
XFILLER_0_7_66 vdd vdd vss vss gf180mcu_fd_sc_mcu7t5v0__fillcap_4
XTAP_TAPCELL_ROW_22_190 vdd vss gf180mcu_fd_sc_mcu7t5v0__filltie
XTAP_TAPCELL_ROW_14_157 vdd vss gf180mcu_fd_sc_mcu7t5v0__filltie
XFILLER_0_1_104 vdd vdd vss vss gf180mcu_fd_sc_mcu7t5v0__fillcap_16
XTAP_TAPCELL_ROW_5_114 vdd vss gf180mcu_fd_sc_mcu7t5v0__filltie
XTAP_TAPCELL_ROW_28_216 vdd vss gf180mcu_fd_sc_mcu7t5v0__filltie
X_270_ _089_ net76 vdd vdd vss vss gf180mcu_fd_sc_mcu7t5v0__clkbuf_1
XTAP_TAPCELL_ROW_42_285 vdd vss gf180mcu_fd_sc_mcu7t5v0__filltie
XFILLER_0_40_34 vdd vdd vss vss gf180mcu_fd_sc_mcu7t5v0__fill_1
XFILLER_0_27_324 vdd vdd vss vss gf180mcu_fd_sc_mcu7t5v0__fill_1
XFILLER_0_4_34 vdd vdd vss vss gf180mcu_fd_sc_mcu7t5v0__fill_1
XTAP_TAPCELL_ROW_33_241 vdd vss gf180mcu_fd_sc_mcu7t5v0__filltie
X_322_ sel_latched\[0\] _119_ vdd vdd vss vss gf180mcu_fd_sc_mcu7t5v0__clkinv_1
X_184_ net13 _030_ _032_ _036_ vdd vdd vss vss gf180mcu_fd_sc_mcu7t5v0__and3_1
XFILLER_0_19_68 vdd vdd vss vss gf180mcu_fd_sc_mcu7t5v0__fill_2
X_253_ net2 _075_ _076_ _079_ vdd vdd vss vss gf180mcu_fd_sc_mcu7t5v0__and3_1
XFILLER_0_10_37 vdd vdd vss vss gf180mcu_fd_sc_mcu7t5v0__fillcap_64
XFILLER_0_18_187 vdd vdd vss vss gf180mcu_fd_sc_mcu7t5v0__fill_2
XFILLER_0_18_132 vdd vdd vss vss gf180mcu_fd_sc_mcu7t5v0__fill_2
X_236_ _068_ net62 vdd vdd vss vss gf180mcu_fd_sc_mcu7t5v0__clkbuf_1
XFILLER_0_24_179 vdd vdd vss vss gf180mcu_fd_sc_mcu7t5v0__fill_1
XFILLER_0_24_135 vdd vdd vss vss gf180mcu_fd_sc_mcu7t5v0__fill_1
X_167_ net8 _024_ _025_ vdd vdd vss vss gf180mcu_fd_sc_mcu7t5v0__and2_1
X_305_ net4 _109_ _110_ vdd vdd vss vss gf180mcu_fd_sc_mcu7t5v0__and2_1
XFILLER_0_7_324 vdd vdd vss vss gf180mcu_fd_sc_mcu7t5v0__fill_1
XFILLER_0_37_282 vdd vdd vss vss gf180mcu_fd_sc_mcu7t5v0__fillcap_32
XFILLER_0_29_205 vdd vdd vss vss gf180mcu_fd_sc_mcu7t5v0__fillcap_4
XANTENNA__140__A1 net14 vdd vdd vss vss gf180mcu_fd_sc_mcu7t5v0__antenna
X_219_ _057_ net55 vdd vdd vss vss gf180mcu_fd_sc_mcu7t5v0__clkbuf_1
Xoutput27 net27 proj_in[0] vdd vdd vss vss gf180mcu_fd_sc_mcu7t5v0__clkbuf_1
Xoutput49 net49 proj_in[2] vdd vdd vss vss gf180mcu_fd_sc_mcu7t5v0__clkbuf_1
Xoutput38 net38 proj_in[1] vdd vdd vss vss gf180mcu_fd_sc_mcu7t5v0__clkbuf_1
XANTENNA__131__A1 net1 vdd vdd vss vss gf180mcu_fd_sc_mcu7t5v0__antenna
XANTENNA__198__A1 net18 vdd vdd vss vss gf180mcu_fd_sc_mcu7t5v0__antenna
XFILLER_0_34_241 vdd vdd vss vss gf180mcu_fd_sc_mcu7t5v0__fillcap_4
XFILLER_0_27_68 vdd vdd vss vss gf180mcu_fd_sc_mcu7t5v0__fill_2
XFILLER_0_19_282 vdd vdd vss vss gf180mcu_fd_sc_mcu7t5v0__fillcap_32
Xclkbuf_0_clk clk clknet_0_clk vdd vdd vss vss gf180mcu_fd_sc_mcu7t5v0__clkbuf_16
XPHY_EDGE_ROW_24_Right_24 vdd vss gf180mcu_fd_sc_mcu7t5v0__endcap
XPHY_EDGE_ROW_15_Right_15 vdd vss gf180mcu_fd_sc_mcu7t5v0__endcap
XPHY_EDGE_ROW_42_Right_42 vdd vss gf180mcu_fd_sc_mcu7t5v0__endcap
XFILLER_0_39_322 vdd vdd vss vss gf180mcu_fd_sc_mcu7t5v0__fill_1
XPHY_EDGE_ROW_33_Right_33 vdd vss gf180mcu_fd_sc_mcu7t5v0__endcap
XFILLER_0_22_200 vdd vdd vss vss gf180mcu_fd_sc_mcu7t5v0__fill_2
XTAP_TAPCELL_ROW_22_191 vdd vss gf180mcu_fd_sc_mcu7t5v0__filltie
XFILLER_0_38_34 vdd vdd vss vss gf180mcu_fd_sc_mcu7t5v0__fill_1
XANTENNA__334__A1 net20 vdd vdd vss vss gf180mcu_fd_sc_mcu7t5v0__antenna
XFILLER_0_13_266 vdd vdd vss vss gf180mcu_fd_sc_mcu7t5v0__fillcap_8
XTAP_TAPCELL_ROW_28_217 vdd vss gf180mcu_fd_sc_mcu7t5v0__filltie
XFILLER_0_5_2 vdd vdd vss vss gf180mcu_fd_sc_mcu7t5v0__fillcap_64
XTAP_TAPCELL_ROW_5_115 vdd vss gf180mcu_fd_sc_mcu7t5v0__filltie
XTAP_TAPCELL_ROW_42_286 vdd vss gf180mcu_fd_sc_mcu7t5v0__filltie
XFILLER_0_27_314 vdd vdd vss vss gf180mcu_fd_sc_mcu7t5v0__fillcap_8
XFILLER_0_24_14 vdd vdd vss vss gf180mcu_fd_sc_mcu7t5v0__fillcap_16
XANTENNA__316__A1 net9 vdd vdd vss vss gf180mcu_fd_sc_mcu7t5v0__antenna
XFILLER_0_10_247 vdd vdd vss vss gf180mcu_fd_sc_mcu7t5v0__fillcap_64
XTAP_TAPCELL_ROW_33_242 vdd vss gf180mcu_fd_sc_mcu7t5v0__filltie
XANTENNA__307__A1 net5 vdd vdd vss vss gf180mcu_fd_sc_mcu7t5v0__antenna
XFILLER_0_36_177 vdd vdd vss vss gf180mcu_fd_sc_mcu7t5v0__fillcap_64
X_183_ _035_ net40 vdd vdd vss vss gf180mcu_fd_sc_mcu7t5v0__clkbuf_1
XFILLER_0_24_317 vdd vdd vss vss gf180mcu_fd_sc_mcu7t5v0__fill_2
X_252_ _078_ net68 vdd vdd vss vss gf180mcu_fd_sc_mcu7t5v0__clkbuf_1
X_321_ _118_ net23 vdd vdd vss vss gf180mcu_fd_sc_mcu7t5v0__buf_1
XTAP_TAPCELL_ROW_0_86 vdd vss gf180mcu_fd_sc_mcu7t5v0__filltie
XFILLER_0_27_188 vdd vdd vss vss gf180mcu_fd_sc_mcu7t5v0__fillcap_4
XFILLER_0_27_144 vdd vdd vss vss gf180mcu_fd_sc_mcu7t5v0__fill_1
XFILLER_0_33_136 vdd vdd vss vss gf180mcu_fd_sc_mcu7t5v0__fillcap_4
X_235_ net13 _061_ _064_ _068_ vdd vdd vss vss gf180mcu_fd_sc_mcu7t5v0__and3_1
XFILLER_0_18_155 vdd vdd vss vss gf180mcu_fd_sc_mcu7t5v0__fill_1
X_304_ _093_ _109_ vdd vdd vss vss gf180mcu_fd_sc_mcu7t5v0__clkbuf_1
XFILLER_0_24_158 vdd vdd vss vss gf180mcu_fd_sc_mcu7t5v0__fill_1
X_166_ _002_ _024_ vdd vdd vss vss gf180mcu_fd_sc_mcu7t5v0__clkbuf_1
XFILLER_0_7_314 vdd vdd vss vss gf180mcu_fd_sc_mcu7t5v0__fillcap_8