* NGSPICE file created from input_mux.ext - technology: gf180mcuD

* Black-box entry subcircuit for gf180mcu_fd_sc_mcu7t5v0__fillcap_64 abstract view
.subckt gf180mcu_fd_sc_mcu7t5v0__fillcap_64 VDD VNW VPW VSS
.ends

* Black-box entry subcircuit for gf180mcu_fd_sc_mcu7t5v0__fillcap_4 abstract view
.subckt gf180mcu_fd_sc_mcu7t5v0__fillcap_4 VDD VNW VPW VSS
.ends

* Black-box entry subcircuit for gf180mcu_fd_sc_mcu7t5v0__and2_1 abstract view
.subckt gf180mcu_fd_sc_mcu7t5v0__and2_1 A1 A2 Z VDD VNW VPW VSS
.ends

* Black-box entry subcircuit for gf180mcu_fd_sc_mcu7t5v0__and3_1 abstract view
.subckt gf180mcu_fd_sc_mcu7t5v0__and3_1 A1 A2 A3 Z VDD VNW VPW VSS
.ends

* Black-box entry subcircuit for gf180mcu_fd_sc_mcu7t5v0__clkbuf_1 abstract view
.subckt gf180mcu_fd_sc_mcu7t5v0__clkbuf_1 I Z VDD VNW VPW VSS
.ends

* Black-box entry subcircuit for gf180mcu_fd_sc_mcu7t5v0__filltie abstract view
.subckt gf180mcu_fd_sc_mcu7t5v0__filltie VDD VSS
.ends

* Black-box entry subcircuit for gf180mcu_fd_sc_mcu7t5v0__fillcap_16 abstract view
.subckt gf180mcu_fd_sc_mcu7t5v0__fillcap_16 VDD VNW VPW VSS
.ends

* Black-box entry subcircuit for gf180mcu_fd_sc_mcu7t5v0__fill_2 abstract view
.subckt gf180mcu_fd_sc_mcu7t5v0__fill_2 VDD VNW VPW VSS
.ends

* Black-box entry subcircuit for gf180mcu_fd_sc_mcu7t5v0__and4_1 abstract view
.subckt gf180mcu_fd_sc_mcu7t5v0__and4_1 A1 A2 A3 A4 Z VDD VNW VPW VSS
.ends

* Black-box entry subcircuit for gf180mcu_fd_sc_mcu7t5v0__fillcap_8 abstract view
.subckt gf180mcu_fd_sc_mcu7t5v0__fillcap_8 VDD VNW VPW VSS
.ends

* Black-box entry subcircuit for gf180mcu_fd_sc_mcu7t5v0__fill_1 abstract view
.subckt gf180mcu_fd_sc_mcu7t5v0__fill_1 VDD VNW VPW VSS
.ends

* Black-box entry subcircuit for gf180mcu_fd_sc_mcu7t5v0__antenna abstract view
.subckt gf180mcu_fd_sc_mcu7t5v0__antenna I VDD VNW VPW VSS
.ends

* Black-box entry subcircuit for gf180mcu_fd_sc_mcu7t5v0__fillcap_32 abstract view
.subckt gf180mcu_fd_sc_mcu7t5v0__fillcap_32 VDD VNW VPW VSS
.ends

* Black-box entry subcircuit for gf180mcu_fd_sc_mcu7t5v0__nor3_1 abstract view
.subckt gf180mcu_fd_sc_mcu7t5v0__nor3_1 A1 A2 A3 ZN VDD VNW VPW VSS
.ends

* Black-box entry subcircuit for gf180mcu_fd_sc_mcu7t5v0__endcap abstract view
.subckt gf180mcu_fd_sc_mcu7t5v0__endcap VDD VSS
.ends

* Black-box entry subcircuit for gf180mcu_fd_sc_mcu7t5v0__nor4_1 abstract view
.subckt gf180mcu_fd_sc_mcu7t5v0__nor4_1 A1 A2 A3 A4 ZN VDD VNW VPW VSS
.ends

* Black-box entry subcircuit for gf180mcu_fd_sc_mcu7t5v0__nand3_1 abstract view
.subckt gf180mcu_fd_sc_mcu7t5v0__nand3_1 A1 A2 A3 ZN VDD VNW VPW VSS
.ends

* Black-box entry subcircuit for gf180mcu_fd_sc_mcu7t5v0__clkbuf_16 abstract view
.subckt gf180mcu_fd_sc_mcu7t5v0__clkbuf_16 I Z VDD VNW VPW VSS
.ends

* Black-box entry subcircuit for gf180mcu_fd_sc_mcu7t5v0__clkinv_1 abstract view
.subckt gf180mcu_fd_sc_mcu7t5v0__clkinv_1 I ZN VDD VNW VPW VSS
.ends

* Black-box entry subcircuit for gf180mcu_fd_sc_mcu7t5v0__nand2_1 abstract view
.subckt gf180mcu_fd_sc_mcu7t5v0__nand2_1 A1 A2 ZN VDD VNW VPW VSS
.ends

* Black-box entry subcircuit for gf180mcu_fd_sc_mcu7t5v0__buf_1 abstract view
.subckt gf180mcu_fd_sc_mcu7t5v0__buf_1 I Z VDD VNW VPW VSS
.ends

* Black-box entry subcircuit for gf180mcu_fd_sc_mcu7t5v0__nor2_1 abstract view
.subckt gf180mcu_fd_sc_mcu7t5v0__nor2_1 A1 A2 ZN VDD VNW VPW VSS
.ends

* Black-box entry subcircuit for gf180mcu_fd_sc_mcu7t5v0__inv_1 abstract view
.subckt gf180mcu_fd_sc_mcu7t5v0__inv_1 I ZN VDD VNW VPW VSS
.ends

* Black-box entry subcircuit for gf180mcu_fd_sc_mcu7t5v0__dffq_1 abstract view
.subckt gf180mcu_fd_sc_mcu7t5v0__dffq_1 D CLK Q VDD VNW VPW VSS
.ends

* Black-box entry subcircuit for gf180mcu_fd_sc_mcu7t5v0__nor3_4 abstract view
.subckt gf180mcu_fd_sc_mcu7t5v0__nor3_4 A1 A2 A3 ZN VDD VNW VPW VSS
.ends

* Black-box entry subcircuit for gf180mcu_fd_sc_mcu7t5v0__clkbuf_2 abstract view
.subckt gf180mcu_fd_sc_mcu7t5v0__clkbuf_2 I Z VDD VNW VPW VSS
.ends

* Black-box entry subcircuit for gf180mcu_fd_sc_mcu7t5v0__nor2_2 abstract view
.subckt gf180mcu_fd_sc_mcu7t5v0__nor2_2 A1 A2 ZN VDD VNW VPW VSS
.ends

* Black-box entry subcircuit for gf180mcu_fd_sc_mcu7t5v0__nor3_2 abstract view
.subckt gf180mcu_fd_sc_mcu7t5v0__nor3_2 A1 A2 A3 ZN VDD VNW VPW VSS
.ends

* Black-box entry subcircuit for gf180mcu_fd_sc_mcu7t5v0__nand4_1 abstract view
.subckt gf180mcu_fd_sc_mcu7t5v0__nand4_1 A1 A2 A3 A4 ZN VDD VNW VPW VSS
.ends

* Black-box entry subcircuit for gf180mcu_fd_sc_mcu7t5v0__nor4_2 abstract view
.subckt gf180mcu_fd_sc_mcu7t5v0__nor4_2 A1 A2 A3 A4 ZN VDD VNW VPW VSS
.ends

.subckt input_mux clk in[0] in[10] in[11] in[12] in[13] in[14] in[15] in[16] in[17]
+ in[1] in[2] in[3] in[4] in[5] in[6] in[7] in[8] in[9] proj_clk[0] proj_clk[1] proj_clk[2]
+ proj_clk[3] proj_clk[4] proj_clk[5] proj_clk[6] proj_clk[7] proj_in[0] proj_in[100]
+ proj_in[101] proj_in[102] proj_in[103] proj_in[104] proj_in[105] proj_in[106] proj_in[107]
+ proj_in[108] proj_in[109] proj_in[10] proj_in[110] proj_in[111] proj_in[112] proj_in[113]
+ proj_in[114] proj_in[115] proj_in[116] proj_in[117] proj_in[118] proj_in[119] proj_in[11]
+ proj_in[120] proj_in[121] proj_in[122] proj_in[123] proj_in[124] proj_in[125] proj_in[126]
+ proj_in[127] proj_in[128] proj_in[129] proj_in[12] proj_in[130] proj_in[131] proj_in[132]
+ proj_in[133] proj_in[134] proj_in[135] proj_in[136] proj_in[137] proj_in[138] proj_in[139]
+ proj_in[13] proj_in[140] proj_in[141] proj_in[142] proj_in[143] proj_in[14] proj_in[15]
+ proj_in[16] proj_in[17] proj_in[18] proj_in[19] proj_in[1] proj_in[20] proj_in[21]
+ proj_in[22] proj_in[23] proj_in[24] proj_in[25] proj_in[26] proj_in[27] proj_in[28]
+ proj_in[29] proj_in[2] proj_in[30] proj_in[31] proj_in[32] proj_in[33] proj_in[34]
+ proj_in[35] proj_in[36] proj_in[37] proj_in[38] proj_in[39] proj_in[3] proj_in[40]
+ proj_in[41] proj_in[42] proj_in[43] proj_in[44] proj_in[45] proj_in[46] proj_in[47]
+ proj_in[48] proj_in[49] proj_in[4] proj_in[50] proj_in[51] proj_in[52] proj_in[53]
+ proj_in[54] proj_in[55] proj_in[56] proj_in[57] proj_in[58] proj_in[59] proj_in[5]
+ proj_in[60] proj_in[61] proj_in[62] proj_in[63] proj_in[64] proj_in[65] proj_in[66]
+ proj_in[67] proj_in[68] proj_in[69] proj_in[6] proj_in[70] proj_in[71] proj_in[72]
+ proj_in[73] proj_in[74] proj_in[75] proj_in[76] proj_in[77] proj_in[78] proj_in[79]
+ proj_in[7] proj_in[80] proj_in[81] proj_in[82] proj_in[83] proj_in[84] proj_in[85]
+ proj_in[86] proj_in[87] proj_in[88] proj_in[89] proj_in[8] proj_in[90] proj_in[91]
+ proj_in[92] proj_in[93] proj_in[94] proj_in[95] proj_in[96] proj_in[97] proj_in[98]
+ proj_in[99] proj_in[9] proj_rst_n[0] proj_rst_n[1] proj_rst_n[2] proj_rst_n[3] proj_rst_n[4]
+ proj_rst_n[5] proj_rst_n[6] proj_rst_n[7] rst_n sel[0] sel[1] sel[2] vdd vss
XFILLER_0_32_247 vdd vdd vss vss gf180mcu_fd_sc_mcu7t5v0__fillcap_64
XFILLER_0_4_171 vdd vdd vss vss gf180mcu_fd_sc_mcu7t5v0__fillcap_4
X_501_ _041_ _005_ _042_ vdd vdd vss vss gf180mcu_fd_sc_mcu7t5v0__and2_1
X_432_ _186_ _278_ _163_ _289_ vdd vdd vss vss gf180mcu_fd_sc_mcu7t5v0__and3_1
X_363_ _249_ net57 vdd vdd vss vss gf180mcu_fd_sc_mcu7t5v0__clkbuf_1
X_294_ _205_ net172 vdd vdd vss vss gf180mcu_fd_sc_mcu7t5v0__clkbuf_1
XTAP_TAPCELL_ROW_23_194 vdd vss gf180mcu_fd_sc_mcu7t5v0__filltie
XFILLER_0_13_40 vdd vdd vss vss gf180mcu_fd_sc_mcu7t5v0__fillcap_16
XFILLER_0_13_95 vdd vdd vss vss gf180mcu_fd_sc_mcu7t5v0__fill_2
XTAP_TAPCELL_ROW_6_118 vdd vss gf180mcu_fd_sc_mcu7t5v0__filltie
XFILLER_0_34_28 vdd vdd vss vss gf180mcu_fd_sc_mcu7t5v0__fillcap_4
XTAP_TAPCELL_ROW_28_220 vdd vss gf180mcu_fd_sc_mcu7t5v0__filltie
X_346_ _233_ net18 _237_ _238_ _239_ vdd vdd vss vss gf180mcu_fd_sc_mcu7t5v0__and4_1
X_415_ _279_ net175 vdd vdd vss vss gf180mcu_fd_sc_mcu7t5v0__clkbuf_1
XFILLER_0_28_317 vdd vdd vss vss gf180mcu_fd_sc_mcu7t5v0__fillcap_8
XTAP_TAPCELL_ROW_11_142 vdd vss gf180mcu_fd_sc_mcu7t5v0__filltie
XTAP_TAPCELL_ROW_34_245 vdd vss gf180mcu_fd_sc_mcu7t5v0__filltie
XFILLER_0_6_244 vdd vdd vss vss gf180mcu_fd_sc_mcu7t5v0__fill_1
XFILLER_0_37_136 vdd vdd vss vss gf180mcu_fd_sc_mcu7t5v0__fillcap_4
X_329_ _226_ net12 _223_ _224_ _228_ vdd vdd vss vss gf180mcu_fd_sc_mcu7t5v0__and4_1
XANTENNA__617__I _129_ vdd vdd vss vss gf180mcu_fd_sc_mcu7t5v0__antenna
XFILLER_0_19_72 vdd vdd vss vss gf180mcu_fd_sc_mcu7t5v0__fill_2
XFILLER_0_35_60 vdd vdd vss vss gf180mcu_fd_sc_mcu7t5v0__fillcap_8
XFILLER_0_42_172 vdd vdd vss vss gf180mcu_fd_sc_mcu7t5v0__fill_2
XFILLER_0_34_139 vdd vdd vss vss gf180mcu_fd_sc_mcu7t5v0__fillcap_4
XANTENNA_output142_I net142 vdd vdd vss vss gf180mcu_fd_sc_mcu7t5v0__antenna
X_680_ _161_ _000_ _164_ _165_ vdd vdd vss vss gf180mcu_fd_sc_mcu7t5v0__and3_1
XFILLER_0_8_317 vdd vdd vss vss gf180mcu_fd_sc_mcu7t5v0__fillcap_8
XFILLER_0_21_84 vdd vdd vss vss gf180mcu_fd_sc_mcu7t5v0__fill_2
XFILLER_0_24_150 vdd vdd vss vss gf180mcu_fd_sc_mcu7t5v0__fill_1
XFILLER_0_1_72 vdd vdd vss vss gf180mcu_fd_sc_mcu7t5v0__fill_1
XFILLER_0_1_83 vdd vdd vss vss gf180mcu_fd_sc_mcu7t5v0__fillcap_32
XFILLER_0_15_172 vdd vdd vss vss gf180mcu_fd_sc_mcu7t5v0__fill_1
XFILLER_0_15_183 vdd vdd vss vss gf180mcu_fd_sc_mcu7t5v0__fillcap_4
X_732_ _190_ _012_ _192_ _193_ _196_ vdd vdd vss vss gf180mcu_fd_sc_mcu7t5v0__and4_1
X_663_ _156_ _078_ _157_ net133 vdd vdd vss vss gf180mcu_fd_sc_mcu7t5v0__nor3_1
X_594_ _114_ _115_ vdd vdd vss vss gf180mcu_fd_sc_mcu7t5v0__clkbuf_1
XANTENNA__630__I _131_ vdd vdd vss vss gf180mcu_fd_sc_mcu7t5v0__antenna
XFILLER_0_21_142 vdd vdd vss vss gf180mcu_fd_sc_mcu7t5v0__fill_1
XFILLER_0_13_8 vdd vdd vss vss gf180mcu_fd_sc_mcu7t5v0__fillcap_32
XPHY_EDGE_ROW_16_Left_59 vdd vss gf180mcu_fd_sc_mcu7t5v0__endcap
XFILLER_0_8_169 vdd vdd vss vss gf180mcu_fd_sc_mcu7t5v0__fill_1
XFILLER_0_29_220 vdd vdd vss vss gf180mcu_fd_sc_mcu7t5v0__fill_2
XFILLER_0_35_212 vdd vdd vss vss gf180mcu_fd_sc_mcu7t5v0__fillcap_64
Xoutput31 net31 proj_in[0] vdd vdd vss vss gf180mcu_fd_sc_mcu7t5v0__clkbuf_1
Xoutput53 net53 proj_in[11] vdd vdd vss vss gf180mcu_fd_sc_mcu7t5v0__clkbuf_1
Xoutput42 net42 proj_in[10] vdd vdd vss vss gf180mcu_fd_sc_mcu7t5v0__clkbuf_1
Xoutput64 net64 proj_in[12] vdd vdd vss vss gf180mcu_fd_sc_mcu7t5v0__clkbuf_1
Xoutput75 net75 proj_in[13] vdd vdd vss vss gf180mcu_fd_sc_mcu7t5v0__clkbuf_1
Xoutput97 net97 proj_in[2] vdd vdd vss vss gf180mcu_fd_sc_mcu7t5v0__clkbuf_1
Xoutput86 net86 proj_in[1] vdd vdd vss vss gf180mcu_fd_sc_mcu7t5v0__clkbuf_1
X_715_ _185_ net159 vdd vdd vss vss gf180mcu_fd_sc_mcu7t5v0__clkbuf_1
X_577_ _095_ _100_ _092_ _093_ _101_ vdd vdd vss vss gf180mcu_fd_sc_mcu7t5v0__nor4_1
X_646_ _057_ _149_ vdd vdd vss vss gf180mcu_fd_sc_mcu7t5v0__clkbuf_1
XFILLER_0_26_201 vdd vdd vss vss gf180mcu_fd_sc_mcu7t5v0__fill_2
XFILLER_0_17_212 vdd vdd vss vss gf180mcu_fd_sc_mcu7t5v0__fill_1
XFILLER_0_17_201 vdd vdd vss vss gf180mcu_fd_sc_mcu7t5v0__fillcap_8
XTAP_TAPCELL_ROW_17_170 vdd vss gf180mcu_fd_sc_mcu7t5v0__filltie
XANTENNA__338__A2 net15 vdd vdd vss vss gf180mcu_fd_sc_mcu7t5v0__antenna
XFILLER_0_32_237 vdd vdd vss vss gf180mcu_fd_sc_mcu7t5v0__fillcap_8
X_500_ net8 _041_ vdd vdd vss vss gf180mcu_fd_sc_mcu7t5v0__clkbuf_1
XANTENNA__329__A2 net12 vdd vdd vss vss gf180mcu_fd_sc_mcu7t5v0__antenna
X_431_ _287_ net188 _277_ net27 vdd vdd vss vss gf180mcu_fd_sc_mcu7t5v0__nand3_1
X_362_ _247_ net7 _244_ _245_ _249_ vdd vdd vss vss gf180mcu_fd_sc_mcu7t5v0__and4_1
X_293_ _204_ _023_ _199_ _200_ _205_ vdd vdd vss vss gf180mcu_fd_sc_mcu7t5v0__and4_1
XTAP_TAPCELL_ROW_23_195 vdd vss gf180mcu_fd_sc_mcu7t5v0__filltie
XFILLER_0_23_248 vdd vdd vss vss gf180mcu_fd_sc_mcu7t5v0__fillcap_4
XFILLER_0_23_259 vdd vdd vss vss gf180mcu_fd_sc_mcu7t5v0__fillcap_8
X_629_ _129_ _138_ vdd vdd vss vss gf180mcu_fd_sc_mcu7t5v0__clkbuf_1
XFILLER_0_1_142 vdd vdd vss vss gf180mcu_fd_sc_mcu7t5v0__fillcap_16
XFILLER_0_14_226 vdd vdd vss vss gf180mcu_fd_sc_mcu7t5v0__fill_1
XFILLER_0_14_237 vdd vdd vss vss gf180mcu_fd_sc_mcu7t5v0__fill_2
XTAP_TAPCELL_ROW_6_119 vdd vss gf180mcu_fd_sc_mcu7t5v0__filltie
XPHY_EDGE_ROW_19_Left_62 vdd vss gf180mcu_fd_sc_mcu7t5v0__endcap
X_345_ _053_ _238_ vdd vdd vss vss gf180mcu_fd_sc_mcu7t5v0__clkbuf_1
X_414_ _278_ _005_ _279_ vdd vdd vss vss gf180mcu_fd_sc_mcu7t5v0__and2_1
XTAP_TAPCELL_ROW_11_143 vdd vss gf180mcu_fd_sc_mcu7t5v0__filltie
XTAP_TAPCELL_ROW_34_246 vdd vss gf180mcu_fd_sc_mcu7t5v0__filltie
XPHY_EDGE_ROW_12_Right_12 vdd vss gf180mcu_fd_sc_mcu7t5v0__endcap
Xclkbuf_0__276_ _276_ clknet_0__276_ vdd vdd vss vss gf180mcu_fd_sc_mcu7t5v0__clkbuf_16
XTAP_TAPCELL_ROW_2_100 vdd vss gf180mcu_fd_sc_mcu7t5v0__filltie
XPHY_EDGE_ROW_21_Right_21 vdd vss gf180mcu_fd_sc_mcu7t5v0__endcap
XPHY_EDGE_ROW_4_Left_47 vdd vss gf180mcu_fd_sc_mcu7t5v0__endcap
XPHY_EDGE_ROW_30_Right_30 vdd vss gf180mcu_fd_sc_mcu7t5v0__endcap
XFILLER_0_28_115 vdd vdd vss vss gf180mcu_fd_sc_mcu7t5v0__fillcap_4
XFILLER_0_28_104 vdd vdd vss vss gf180mcu_fd_sc_mcu7t5v0__fill_1
X_328_ _227_ net43 vdd vdd vss vss gf180mcu_fd_sc_mcu7t5v0__clkbuf_1
XFILLER_0_28_159 vdd vdd vss vss gf180mcu_fd_sc_mcu7t5v0__fill_2
XFILLER_0_19_40 vdd vdd vss vss gf180mcu_fd_sc_mcu7t5v0__fillcap_16
XTAP_TAPCELL_ROW_0_90 vdd vss gf180mcu_fd_sc_mcu7t5v0__filltie
XFILLER_0_35_72 vdd vdd vss vss gf180mcu_fd_sc_mcu7t5v0__fillcap_64
XFILLER_0_34_107 vdd vdd vss vss gf180mcu_fd_sc_mcu7t5v0__fill_2
XFILLER_0_33_173 vdd vdd vss vss gf180mcu_fd_sc_mcu7t5v0__fill_1
XFILLER_0_21_324 vdd vdd vss vss gf180mcu_fd_sc_mcu7t5v0__fill_1
XFILLER_0_1_62 vdd vdd vss vss gf180mcu_fd_sc_mcu7t5v0__fill_2
XANTENNA__538__I net14 vdd vdd vss vss gf180mcu_fd_sc_mcu7t5v0__antenna
XFILLER_0_30_198 vdd vdd vss vss gf180mcu_fd_sc_mcu7t5v0__fillcap_8
XFILLER_0_15_195 vdd vdd vss vss gf180mcu_fd_sc_mcu7t5v0__fill_2
X_731_ _195_ net166 vdd vdd vss vss gf180mcu_fd_sc_mcu7t5v0__clkbuf_1
X_662_ _151_ _157_ vdd vdd vss vss gf180mcu_fd_sc_mcu7t5v0__clkbuf_1
X_593_ _113_ _114_ vdd vdd vss vss gf180mcu_fd_sc_mcu7t5v0__clkbuf_1
XPHY_EDGE_ROW_7_Left_50 vdd vss gf180mcu_fd_sc_mcu7t5v0__endcap
XFILLER_0_6_18 vdd vdd vss vss gf180mcu_fd_sc_mcu7t5v0__fillcap_16
XFILLER_0_32_95 vdd vdd vss vss gf180mcu_fd_sc_mcu7t5v0__fillcap_8
XFILLER_0_8_159 vdd vdd vss vss gf180mcu_fd_sc_mcu7t5v0__fill_2
XPHY_EDGE_ROW_6_Right_6 vdd vss gf180mcu_fd_sc_mcu7t5v0__endcap
XFILLER_0_4_321 vdd vdd vss vss gf180mcu_fd_sc_mcu7t5v0__fill_2
XFILLER_0_12_154 vdd vdd vss vss gf180mcu_fd_sc_mcu7t5v0__fill_1
XANTENNA_input11_I in[2] vdd vdd vss vss gf180mcu_fd_sc_mcu7t5v0__antenna
Xoutput43 net43 proj_in[110] vdd vdd vss vss gf180mcu_fd_sc_mcu7t5v0__clkbuf_1
Xoutput87 net87 proj_in[20] vdd vdd vss vss gf180mcu_fd_sc_mcu7t5v0__clkbuf_1
Xoutput65 net65 proj_in[130] vdd vdd vss vss gf180mcu_fd_sc_mcu7t5v0__clkbuf_1
XPHY_EDGE_ROW_33_Left_76 vdd vss gf180mcu_fd_sc_mcu7t5v0__endcap
Xoutput32 net32 proj_in[100] vdd vdd vss vss gf180mcu_fd_sc_mcu7t5v0__clkbuf_1
Xoutput76 net76 proj_in[140] vdd vdd vss vss gf180mcu_fd_sc_mcu7t5v0__clkbuf_1
Xoutput54 net54 proj_in[120] vdd vdd vss vss gf180mcu_fd_sc_mcu7t5v0__clkbuf_1
Xoutput98 net98 proj_in[30] vdd vdd vss vss gf180mcu_fd_sc_mcu7t5v0__clkbuf_1
X_714_ _180_ _037_ _182_ _185_ vdd vdd vss vss gf180mcu_fd_sc_mcu7t5v0__and3_1
X_645_ _148_ net123 vdd vdd vss vss gf180mcu_fd_sc_mcu7t5v0__clkbuf_1
X_576_ net7 _100_ vdd vdd vss vss gf180mcu_fd_sc_mcu7t5v0__clkinv_1
XANTENNA_input3_I in[11] vdd vdd vss vss gf180mcu_fd_sc_mcu7t5v0__antenna
XFILLER_0_27_40 vdd vdd vss vss gf180mcu_fd_sc_mcu7t5v0__fillcap_16
XFILLER_0_27_84 vdd vdd vss vss gf180mcu_fd_sc_mcu7t5v0__fillcap_4
XFILLER_0_32_205 vdd vdd vss vss gf180mcu_fd_sc_mcu7t5v0__fillcap_4
XFILLER_0_7_72 vdd vdd vss vss gf180mcu_fd_sc_mcu7t5v0__fillcap_64
XANTENNA__551__I _081_ vdd vdd vss vss gf180mcu_fd_sc_mcu7t5v0__antenna
X_361_ _248_ net56 vdd vdd vss vss gf180mcu_fd_sc_mcu7t5v0__clkbuf_1
XANTENNA__726__I _129_ vdd vdd vss vss gf180mcu_fd_sc_mcu7t5v0__antenna
XFILLER_0_23_205 vdd vdd vss vss gf180mcu_fd_sc_mcu7t5v0__fillcap_4
XTAP_TAPCELL_ROW_23_196 vdd vss gf180mcu_fd_sc_mcu7t5v0__filltie
XANTENNA__461__I net13 vdd vdd vss vss gf180mcu_fd_sc_mcu7t5v0__antenna
XFILLER_0_31_282 vdd vdd vss vss gf180mcu_fd_sc_mcu7t5v0__fillcap_32
X_628_ _137_ net116 vdd vdd vss vss gf180mcu_fd_sc_mcu7t5v0__clkbuf_1
XFILLER_0_13_64 vdd vdd vss vss gf180mcu_fd_sc_mcu7t5v0__fillcap_4
X_559_ _084_ _087_ _080_ _082_ _088_ vdd vdd vss vss gf180mcu_fd_sc_mcu7t5v0__nor4_1
XFILLER_0_1_132 vdd vdd vss vss gf180mcu_fd_sc_mcu7t5v0__fill_1
XFILLER_0_1_176 vdd vdd vss vss gf180mcu_fd_sc_mcu7t5v0__fill_2
XFILLER_0_1_187 vdd vdd vss vss gf180mcu_fd_sc_mcu7t5v0__fillcap_16
XANTENNA_output165_I net165 vdd vdd vss vss gf180mcu_fd_sc_mcu7t5v0__antenna
XFILLER_0_13_282 vdd vdd vss vss gf180mcu_fd_sc_mcu7t5v0__fillcap_32
X_413_ net19 _278_ vdd vdd vss vss gf180mcu_fd_sc_mcu7t5v0__clkbuf_1
X_344_ _049_ _237_ vdd vdd vss vss gf180mcu_fd_sc_mcu7t5v0__clkbuf_1
XTAP_TAPCELL_ROW_34_247 vdd vss gf180mcu_fd_sc_mcu7t5v0__filltie
XPHY_EDGE_ROW_20_Left_63 vdd vss gf180mcu_fd_sc_mcu7t5v0__endcap
XFILLER_0_24_30 vdd vdd vss vss gf180mcu_fd_sc_mcu7t5v0__fillcap_4
XFILLER_0_24_85 vdd vdd vss vss gf180mcu_fd_sc_mcu7t5v0__fill_2
XTAP_TAPCELL_ROW_42_280 vdd vss gf180mcu_fd_sc_mcu7t5v0__filltie
XFILLER_0_10_241 vdd vdd vss vss gf180mcu_fd_sc_mcu7t5v0__fillcap_4
XFILLER_0_10_285 vdd vdd vss vss gf180mcu_fd_sc_mcu7t5v0__fillcap_16
XTAP_TAPCELL_ROW_2_101 vdd vss gf180mcu_fd_sc_mcu7t5v0__filltie
XTAP_TAPCELL_ROW_25_203 vdd vss gf180mcu_fd_sc_mcu7t5v0__filltie
XFILLER_0_33_322 vdd vdd vss vss gf180mcu_fd_sc_mcu7t5v0__fill_2
XFILLER_0_28_127 vdd vdd vss vss gf180mcu_fd_sc_mcu7t5v0__fill_2
XFILLER_0_36_171 vdd vdd vss vss gf180mcu_fd_sc_mcu7t5v0__fillcap_4
X_327_ _226_ net11 _223_ _224_ _227_ vdd vdd vss vss gf180mcu_fd_sc_mcu7t5v0__and4_1
XFILLER_0_10_32 vdd vdd vss vss gf180mcu_fd_sc_mcu7t5v0__fill_2
XTAP_TAPCELL_ROW_0_91 vdd vss gf180mcu_fd_sc_mcu7t5v0__filltie
XFILLER_0_19_127 vdd vdd vss vss gf180mcu_fd_sc_mcu7t5v0__fill_2
XFILLER_0_42_174 vdd vdd vss vss gf180mcu_fd_sc_mcu7t5v0__fill_1
XFILLER_0_15_322 vdd vdd vss vss gf180mcu_fd_sc_mcu7t5v0__fill_2
XFILLER_0_21_314 vdd vdd vss vss gf180mcu_fd_sc_mcu7t5v0__fillcap_8
XFILLER_0_21_86 vdd vdd vss vss gf180mcu_fd_sc_mcu7t5v0__fill_1
XFILLER_0_24_185 vdd vdd vss vss gf180mcu_fd_sc_mcu7t5v0__fill_1
XFILLER_0_1_52 vdd vdd vss vss gf180mcu_fd_sc_mcu7t5v0__fillcap_4
XFILLER_0_15_130 vdd vdd vss vss gf180mcu_fd_sc_mcu7t5v0__fill_1
XFILLER_0_30_166 vdd vdd vss vss gf180mcu_fd_sc_mcu7t5v0__fill_2
XFILLER_0_30_177 vdd vdd vss vss gf180mcu_fd_sc_mcu7t5v0__fillcap_4
X_730_ _190_ _010_ _192_ _193_ _195_ vdd vdd vss vss gf180mcu_fd_sc_mcu7t5v0__and4_1
X_661_ _046_ _156_ vdd vdd vss vss gf180mcu_fd_sc_mcu7t5v0__clkbuf_1
X_592_ net20 _113_ vdd vdd vss vss gf180mcu_fd_sc_mcu7t5v0__clkbuf_1
XFILLER_0_21_111 vdd vdd vss vss gf180mcu_fd_sc_mcu7t5v0__fill_2
XFILLER_0_21_133 vdd vdd vss vss gf180mcu_fd_sc_mcu7t5v0__fill_1
XFILLER_0_16_53 vdd vdd vss vss gf180mcu_fd_sc_mcu7t5v0__fillcap_8
XFILLER_0_29_222 vdd vdd vss vss gf180mcu_fd_sc_mcu7t5v0__fill_1
XFILLER_0_32_85 vdd vdd vss vss gf180mcu_fd_sc_mcu7t5v0__fillcap_4
XFILLER_0_4_311 vdd vdd vss vss gf180mcu_fd_sc_mcu7t5v0__fillcap_4
XFILLER_0_29_277 vdd vdd vss vss gf180mcu_fd_sc_mcu7t5v0__fill_2
XFILLER_0_12_177 vdd vdd vss vss gf180mcu_fd_sc_mcu7t5v0__fill_2
XANTENNA__549__I _079_ vdd vdd vss vss gf180mcu_fd_sc_mcu7t5v0__antenna
Xoutput44 net44 proj_in[111] vdd vdd vss vss gf180mcu_fd_sc_mcu7t5v0__clkbuf_1
Xoutput88 net88 proj_in[21] vdd vdd vss vss gf180mcu_fd_sc_mcu7t5v0__clkbuf_1
Xoutput66 net66 proj_in[131] vdd vdd vss vss gf180mcu_fd_sc_mcu7t5v0__clkbuf_1
Xoutput33 net33 proj_in[101] vdd vdd vss vss gf180mcu_fd_sc_mcu7t5v0__clkbuf_1
Xoutput99 net99 proj_in[31] vdd vdd vss vss gf180mcu_fd_sc_mcu7t5v0__clkbuf_1
Xoutput55 net55 proj_in[121] vdd vdd vss vss gf180mcu_fd_sc_mcu7t5v0__clkbuf_1
Xoutput77 net77 proj_in[141] vdd vdd vss vss gf180mcu_fd_sc_mcu7t5v0__clkbuf_1
X_575_ _099_ net100 vdd vdd vss vss gf180mcu_fd_sc_mcu7t5v0__clkbuf_1
X_713_ _184_ net158 vdd vdd vss vss gf180mcu_fd_sc_mcu7t5v0__clkbuf_1
X_644_ _143_ _107_ _145_ _146_ _148_ vdd vdd vss vss gf180mcu_fd_sc_mcu7t5v0__nor4_1
XFILLER_0_41_206 vdd vdd vss vss gf180mcu_fd_sc_mcu7t5v0__fillcap_4
XFILLER_0_41_228 vdd vdd vss vss gf180mcu_fd_sc_mcu7t5v0__fill_1
XFILLER_0_1_314 vdd vdd vss vss gf180mcu_fd_sc_mcu7t5v0__fillcap_8
XFILLER_0_32_228 vdd vdd vss vss gf180mcu_fd_sc_mcu7t5v0__fill_2
XFILLER_0_7_40 vdd vdd vss vss gf180mcu_fd_sc_mcu7t5v0__fillcap_16
X_360_ _247_ net6 _244_ _245_ _248_ vdd vdd vss vss gf180mcu_fd_sc_mcu7t5v0__and4_1
XTAP_TAPCELL_ROW_23_197 vdd vss gf180mcu_fd_sc_mcu7t5v0__filltie
XFILLER_0_16_280 vdd vdd vss vss gf180mcu_fd_sc_mcu7t5v0__fillcap_32
X_627_ _136_ _089_ _130_ _132_ _137_ vdd vdd vss vss gf180mcu_fd_sc_mcu7t5v0__nor4_1
X_558_ net2 _087_ vdd vdd vss vss gf180mcu_fd_sc_mcu7t5v0__clkinv_1
XFILLER_0_13_76 vdd vdd vss vss gf180mcu_fd_sc_mcu7t5v0__fill_2
XTAP_TAPCELL_ROW_14_153 vdd vss gf180mcu_fd_sc_mcu7t5v0__filltie
X_489_ _032_ _033_ _034_ vdd vdd vss vss gf180mcu_fd_sc_mcu7t5v0__and2_1
XFILLER_0_1_166 vdd vdd vss vss gf180mcu_fd_sc_mcu7t5v0__fillcap_4
X_412_ clknet_1_0__leaf__276_ _277_ net23 vdd vdd vss vss gf180mcu_fd_sc_mcu7t5v0__nand2_1
XANTENNA__737__I _129_ vdd vdd vss vss gf180mcu_fd_sc_mcu7t5v0__antenna
X_343_ _236_ net49 vdd vdd vss vss gf180mcu_fd_sc_mcu7t5v0__clkbuf_1
XFILLER_0_11_209 vdd vdd vss vss gf180mcu_fd_sc_mcu7t5v0__fill_1
XTAP_TAPCELL_ROW_42_281 vdd vss gf180mcu_fd_sc_mcu7t5v0__filltie
XFILLER_0_6_247 vdd vdd vss vss gf180mcu_fd_sc_mcu7t5v0__fillcap_64
XTAP_TAPCELL_ROW_2_102 vdd vss gf180mcu_fd_sc_mcu7t5v0__filltie
XFILLER_0_10_253 vdd vdd vss vss gf180mcu_fd_sc_mcu7t5v0__fillcap_32
XTAP_TAPCELL_ROW_25_204 vdd vss gf180mcu_fd_sc_mcu7t5v0__filltie
X_326_ _211_ _226_ vdd vdd vss vss gf180mcu_fd_sc_mcu7t5v0__clkbuf_1
XFILLER_0_10_77 vdd vdd vss vss gf180mcu_fd_sc_mcu7t5v0__fill_2
XFILLER_0_3_206 vdd vdd vss vss gf180mcu_fd_sc_mcu7t5v0__fillcap_4
XFILLER_0_10_99 vdd vdd vss vss gf180mcu_fd_sc_mcu7t5v0__fillcap_4
XTAP_TAPCELL_ROW_0_92 vdd vss gf180mcu_fd_sc_mcu7t5v0__filltie
XFILLER_0_19_64 vdd vdd vss vss gf180mcu_fd_sc_mcu7t5v0__fillcap_4
XFILLER_0_29_8 vdd vdd vss vss gf180mcu_fd_sc_mcu7t5v0__fillcap_32
XFILLER_0_33_142 vdd vdd vss vss gf180mcu_fd_sc_mcu7t5v0__fill_2
X_309_ _212_ _035_ _214_ _215_ _216_ vdd vdd vss vss gf180mcu_fd_sc_mcu7t5v0__and4_1
XFILLER_0_24_131 vdd vdd vss vss gf180mcu_fd_sc_mcu7t5v0__fill_1
XANTENNA__570__I net5 vdd vdd vss vss gf180mcu_fd_sc_mcu7t5v0__antenna
X_660_ _154_ _076_ _155_ net132 vdd vdd vss vss gf180mcu_fd_sc_mcu7t5v0__nor3_1
X_591_ _111_ _112_ vdd vdd vss vss gf180mcu_fd_sc_mcu7t5v0__clkbuf_1
XFILLER_0_21_167 vdd vdd vss vss gf180mcu_fd_sc_mcu7t5v0__fillcap_4
XFILLER_0_16_32 vdd vdd vss vss gf180mcu_fd_sc_mcu7t5v0__fill_2
XFILLER_0_16_87 vdd vdd vss vss gf180mcu_fd_sc_mcu7t5v0__fill_2
XFILLER_0_29_212 vdd vdd vss vss gf180mcu_fd_sc_mcu7t5v0__fillcap_8
XFILLER_0_8_139 vdd vdd vss vss gf180mcu_fd_sc_mcu7t5v0__fillcap_16
XFILLER_0_7_150 vdd vdd vss vss gf180mcu_fd_sc_mcu7t5v0__fillcap_4
XANTENNA__565__I _079_ vdd vdd vss vss gf180mcu_fd_sc_mcu7t5v0__antenna
Xoutput23 net23 proj_clk[0] vdd vdd vss vss gf180mcu_fd_sc_mcu7t5v0__buf_1
Xoutput34 net34 proj_in[102] vdd vdd vss vss gf180mcu_fd_sc_mcu7t5v0__clkbuf_1
Xoutput45 net45 proj_in[112] vdd vdd vss vss gf180mcu_fd_sc_mcu7t5v0__clkbuf_1
Xoutput78 net78 proj_in[142] vdd vdd vss vss gf180mcu_fd_sc_mcu7t5v0__clkbuf_1
XANTENNA_output65_I net65 vdd vdd vss vss gf180mcu_fd_sc_mcu7t5v0__antenna
Xoutput89 net89 proj_in[22] vdd vdd vss vss gf180mcu_fd_sc_mcu7t5v0__clkbuf_1
Xoutput56 net56 proj_in[122] vdd vdd vss vss gf180mcu_fd_sc_mcu7t5v0__clkbuf_1
X_712_ _180_ _035_ _182_ _184_ vdd vdd vss vss gf180mcu_fd_sc_mcu7t5v0__and3_1
Xoutput67 net67 proj_in[132] vdd vdd vss vss gf180mcu_fd_sc_mcu7t5v0__clkbuf_1
X_574_ _095_ _098_ _092_ _093_ _099_ vdd vdd vss vss gf180mcu_fd_sc_mcu7t5v0__nor4_1
X_643_ _147_ net122 vdd vdd vss vss gf180mcu_fd_sc_mcu7t5v0__clkbuf_1
XFILLER_0_11_8 vdd vdd vss vss gf180mcu_fd_sc_mcu7t5v0__fillcap_32
XFILLER_0_27_64 vdd vdd vss vss gf180mcu_fd_sc_mcu7t5v0__fillcap_4
XFILLER_0_23_218 vdd vdd vss vss gf180mcu_fd_sc_mcu7t5v0__fillcap_4
XTAP_TAPCELL_ROW_8_130 vdd vss gf180mcu_fd_sc_mcu7t5v0__filltie
XTAP_TAPCELL_ROW_14_154 vdd vss gf180mcu_fd_sc_mcu7t5v0__filltie
X_488_ _004_ _033_ vdd vdd vss vss gf180mcu_fd_sc_mcu7t5v0__clkbuf_1
X_557_ _086_ net94 vdd vdd vss vss gf180mcu_fd_sc_mcu7t5v0__clkbuf_1
X_626_ _119_ _136_ vdd vdd vss vss gf180mcu_fd_sc_mcu7t5v0__clkbuf_1
XFILLER_0_1_123 vdd vdd vss vss gf180mcu_fd_sc_mcu7t5v0__fillcap_4
XFILLER_0_22_240 vdd vdd vss vss gf180mcu_fd_sc_mcu7t5v0__fillcap_4
XFILLER_0_1_178 vdd vdd vss vss gf180mcu_fd_sc_mcu7t5v0__fill_1
XTAP_TAPCELL_ROW_37_257 vdd vss gf180mcu_fd_sc_mcu7t5v0__filltie
XFILLER_0_9_278 vdd vdd vss vss gf180mcu_fd_sc_mcu7t5v0__fill_2
XFILLER_0_13_273 vdd vdd vss vss gf180mcu_fd_sc_mcu7t5v0__fillcap_4
X_411_ sel_reg\[1\] sel_reg\[0\] _277_ vdd vdd vss vss gf180mcu_fd_sc_mcu7t5v0__nor2_1
X_342_ _233_ net17 _230_ _231_ _236_ vdd vdd vss vss gf180mcu_fd_sc_mcu7t5v0__and4_1
X_609_ _120_ _072_ _122_ _123_ _125_ vdd vdd vss vss gf180mcu_fd_sc_mcu7t5v0__nor4_1
XTAP_TAPCELL_ROW_42_282 vdd vss gf180mcu_fd_sc_mcu7t5v0__filltie
XTAP_TAPCELL_ROW_2_103 vdd vss gf180mcu_fd_sc_mcu7t5v0__filltie
XANTENNA__573__I net6 vdd vdd vss vss gf180mcu_fd_sc_mcu7t5v0__antenna
XTAP_TAPCELL_ROW_25_205 vdd vss gf180mcu_fd_sc_mcu7t5v0__filltie
XFILLER_0_33_324 vdd vdd vss vss gf180mcu_fd_sc_mcu7t5v0__fill_1
XANTENNA_output170_I net170 vdd vdd vss vss gf180mcu_fd_sc_mcu7t5v0__antenna
XFILLER_0_28_107 vdd vdd vss vss gf180mcu_fd_sc_mcu7t5v0__fillcap_8
X_325_ _225_ net41 vdd vdd vss vss gf180mcu_fd_sc_mcu7t5v0__clkbuf_1
XFILLER_0_10_34 vdd vdd vss vss gf180mcu_fd_sc_mcu7t5v0__fill_1
XTAP_TAPCELL_ROW_0_93 vdd vss gf180mcu_fd_sc_mcu7t5v0__filltie
XFILLER_0_19_129 vdd vdd vss vss gf180mcu_fd_sc_mcu7t5v0__fill_1
XFILLER_0_15_324 vdd vdd vss vss gf180mcu_fd_sc_mcu7t5v0__fill_1
XFILLER_0_33_121 vdd vdd vss vss gf180mcu_fd_sc_mcu7t5v0__fillcap_4
XANTENNA_output95_I net95 vdd vdd vss vss gf180mcu_fd_sc_mcu7t5v0__antenna
XFILLER_0_18_173 vdd vdd vss vss gf180mcu_fd_sc_mcu7t5v0__fill_2
XANTENNA__478__I net18 vdd vdd vss vss gf180mcu_fd_sc_mcu7t5v0__antenna
X_308_ _113_ _215_ vdd vdd vss vss gf180mcu_fd_sc_mcu7t5v0__clkbuf_1
XFILLER_0_21_44 vdd vdd vss vss gf180mcu_fd_sc_mcu7t5v0__fillcap_16
XFILLER_0_24_165 vdd vdd vss vss gf180mcu_fd_sc_mcu7t5v0__fill_2
XFILLER_0_1_43 vdd vdd vss vss gf180mcu_fd_sc_mcu7t5v0__fill_2
X_590_ _110_ _111_ vdd vdd vss vss gf180mcu_fd_sc_mcu7t5v0__clkbuf_1
XFILLER_0_21_179 vdd vdd vss vss gf180mcu_fd_sc_mcu7t5v0__fill_2
XFILLER_0_32_32 vdd vdd vss vss gf180mcu_fd_sc_mcu7t5v0__fill_2
XFILLER_0_8_107 vdd vdd vss vss gf180mcu_fd_sc_mcu7t5v0__fillcap_32
XFILLER_0_29_279 vdd vdd vss vss gf180mcu_fd_sc_mcu7t5v0__fill_1
XFILLER_0_12_135 vdd vdd vss vss gf180mcu_fd_sc_mcu7t5v0__fill_2
Xoutput46 net46 proj_in[113] vdd vdd vss vss gf180mcu_fd_sc_mcu7t5v0__clkbuf_1
Xoutput24 net24 proj_clk[1] vdd vdd vss vss gf180mcu_fd_sc_mcu7t5v0__buf_1
Xoutput57 net57 proj_in[123] vdd vdd vss vss gf180mcu_fd_sc_mcu7t5v0__clkbuf_1
Xoutput35 net35 proj_in[103] vdd vdd vss vss gf180mcu_fd_sc_mcu7t5v0__clkbuf_1
Xoutput79 net79 proj_in[143] vdd vdd vss vss gf180mcu_fd_sc_mcu7t5v0__clkbuf_1
XANTENNA_output58_I net58 vdd vdd vss vss gf180mcu_fd_sc_mcu7t5v0__antenna
X_711_ _183_ net157 vdd vdd vss vss gf180mcu_fd_sc_mcu7t5v0__clkbuf_1
Xoutput68 net68 proj_in[133] vdd vdd vss vss gf180mcu_fd_sc_mcu7t5v0__clkbuf_1
X_642_ _143_ _102_ _145_ _146_ _147_ vdd vdd vss vss gf180mcu_fd_sc_mcu7t5v0__nor4_1
X_573_ net6 _098_ vdd vdd vss vss gf180mcu_fd_sc_mcu7t5v0__clkinv_1
XPHY_EDGE_ROW_19_Right_19 vdd vss gf180mcu_fd_sc_mcu7t5v0__endcap
XANTENNA__491__I net5 vdd vdd vss vss gf180mcu_fd_sc_mcu7t5v0__antenna
XPHY_EDGE_ROW_28_Right_28 vdd vss gf180mcu_fd_sc_mcu7t5v0__endcap
XPHY_EDGE_ROW_37_Right_37 vdd vss gf180mcu_fd_sc_mcu7t5v0__endcap
XFILLER_0_40_241 vdd vdd vss vss gf180mcu_fd_sc_mcu7t5v0__fillcap_4
XFILLER_0_7_64 vdd vdd vss vss gf180mcu_fd_sc_mcu7t5v0__fillcap_4
XFILLER_0_25_282 vdd vdd vss vss gf180mcu_fd_sc_mcu7t5v0__fillcap_32
X_625_ _135_ net115 vdd vdd vss vss gf180mcu_fd_sc_mcu7t5v0__clkbuf_1
XFILLER_0_13_56 vdd vdd vss vss gf180mcu_fd_sc_mcu7t5v0__fillcap_8
XFILLER_0_13_78 vdd vdd vss vss gf180mcu_fd_sc_mcu7t5v0__fill_1
XTAP_TAPCELL_ROW_14_155 vdd vss gf180mcu_fd_sc_mcu7t5v0__filltie
X_487_ net4 _032_ vdd vdd vss vss gf180mcu_fd_sc_mcu7t5v0__clkbuf_1
X_556_ _084_ _085_ _080_ _082_ _086_ vdd vdd vss vss gf180mcu_fd_sc_mcu7t5v0__nor4_1
XANTENNA_input1_I in[0] vdd vdd vss vss gf180mcu_fd_sc_mcu7t5v0__antenna
XTAP_TAPCELL_ROW_37_258 vdd vss gf180mcu_fd_sc_mcu7t5v0__filltie
XFILLER_0_36_311 vdd vdd vss vss gf180mcu_fd_sc_mcu7t5v0__fillcap_4
X_410_ sel_reg\[2\] clknet_1_1__leaf_clk _276_ vdd vdd vss vss gf180mcu_fd_sc_mcu7t5v0__nor2_1
X_341_ _235_ net48 vdd vdd vss vss gf180mcu_fd_sc_mcu7t5v0__clkbuf_1
X_608_ _124_ net109 vdd vdd vss vss gf180mcu_fd_sc_mcu7t5v0__clkbuf_1
XTAP_TAPCELL_ROW_42_283 vdd vss gf180mcu_fd_sc_mcu7t5v0__filltie
X_539_ _071_ _072_ _067_ _068_ _073_ vdd vdd vss vss gf180mcu_fd_sc_mcu7t5v0__nor4_1
XFILLER_0_27_322 vdd vdd vss vss gf180mcu_fd_sc_mcu7t5v0__fill_2
XFILLER_0_18_311 vdd vdd vss vss gf180mcu_fd_sc_mcu7t5v0__fillcap_4
XTAP_TAPCELL_ROW_25_206 vdd vss gf180mcu_fd_sc_mcu7t5v0__filltie
XFILLER_0_33_314 vdd vdd vss vss gf180mcu_fd_sc_mcu7t5v0__fillcap_8
XFILLER_0_5_282 vdd vdd vss vss gf180mcu_fd_sc_mcu7t5v0__fillcap_32
XANTENNA_output163_I net163 vdd vdd vss vss gf180mcu_fd_sc_mcu7t5v0__antenna
X_324_ _219_ net10 _223_ _224_ _225_ vdd vdd vss vss gf180mcu_fd_sc_mcu7t5v0__and4_1
XFILLER_0_10_24 vdd vdd vss vss gf180mcu_fd_sc_mcu7t5v0__fillcap_8
XPHY_EDGE_ROW_24_Left_67 vdd vss gf180mcu_fd_sc_mcu7t5v0__endcap
XTAP_TAPCELL_ROW_0_94 vdd vss gf180mcu_fd_sc_mcu7t5v0__filltie
XFILLER_0_30_317 vdd vdd vss vss gf180mcu_fd_sc_mcu7t5v0__fill_2
XFILLER_0_2_241 vdd vdd vss vss gf180mcu_fd_sc_mcu7t5v0__fillcap_4
XFILLER_0_15_314 vdd vdd vss vss gf180mcu_fd_sc_mcu7t5v0__fillcap_8
XFILLER_0_42_199 vdd vdd vss vss gf180mcu_fd_sc_mcu7t5v0__fillcap_4
XFILLER_0_18_141 vdd vdd vss vss gf180mcu_fd_sc_mcu7t5v0__fill_1