* NGSPICE file created from output_mux.ext - technology: gf180mcuD

* Black-box entry subcircuit for gf180mcu_fd_sc_mcu7t5v0__fillcap_64 abstract view
.subckt gf180mcu_fd_sc_mcu7t5v0__fillcap_64 VDD VNW VPW VSS
.ends

* Black-box entry subcircuit for gf180mcu_fd_sc_mcu7t5v0__antenna abstract view
.subckt gf180mcu_fd_sc_mcu7t5v0__antenna I VDD VNW VPW VSS
.ends

* Black-box entry subcircuit for gf180mcu_fd_sc_mcu7t5v0__fillcap_8 abstract view
.subckt gf180mcu_fd_sc_mcu7t5v0__fillcap_8 VDD VNW VPW VSS
.ends

* Black-box entry subcircuit for gf180mcu_fd_sc_mcu7t5v0__fillcap_4 abstract view
.subckt gf180mcu_fd_sc_mcu7t5v0__fillcap_4 VDD VNW VPW VSS
.ends

* Black-box entry subcircuit for gf180mcu_fd_sc_mcu7t5v0__filltie abstract view
.subckt gf180mcu_fd_sc_mcu7t5v0__filltie VDD VSS
.ends

* Black-box entry subcircuit for gf180mcu_fd_sc_mcu7t5v0__oai21_2 abstract view
.subckt gf180mcu_fd_sc_mcu7t5v0__oai21_2 A1 A2 B ZN VDD VNW VPW VSS
.ends

* Black-box entry subcircuit for gf180mcu_fd_sc_mcu7t5v0__mux4_1 abstract view
.subckt gf180mcu_fd_sc_mcu7t5v0__mux4_1 I0 I1 I2 I3 S0 S1 Z VDD VNW VPW VSS
.ends

* Black-box entry subcircuit for gf180mcu_fd_sc_mcu7t5v0__fill_2 abstract view
.subckt gf180mcu_fd_sc_mcu7t5v0__fill_2 VDD VNW VPW VSS
.ends

* Black-box entry subcircuit for gf180mcu_fd_sc_mcu7t5v0__fillcap_32 abstract view
.subckt gf180mcu_fd_sc_mcu7t5v0__fillcap_32 VDD VNW VPW VSS
.ends

* Black-box entry subcircuit for gf180mcu_fd_sc_mcu7t5v0__nor2_4 abstract view
.subckt gf180mcu_fd_sc_mcu7t5v0__nor2_4 A1 A2 ZN VDD VNW VPW VSS
.ends

* Black-box entry subcircuit for gf180mcu_fd_sc_mcu7t5v0__fill_1 abstract view
.subckt gf180mcu_fd_sc_mcu7t5v0__fill_1 VDD VNW VPW VSS
.ends

* Black-box entry subcircuit for gf180mcu_fd_sc_mcu7t5v0__fillcap_16 abstract view
.subckt gf180mcu_fd_sc_mcu7t5v0__fillcap_16 VDD VNW VPW VSS
.ends

* Black-box entry subcircuit for gf180mcu_fd_sc_mcu7t5v0__endcap abstract view
.subckt gf180mcu_fd_sc_mcu7t5v0__endcap VDD VSS
.ends

* Black-box entry subcircuit for gf180mcu_fd_sc_mcu7t5v0__buf_2 abstract view
.subckt gf180mcu_fd_sc_mcu7t5v0__buf_2 I Z VDD VNW VPW VSS
.ends

* Black-box entry subcircuit for gf180mcu_fd_sc_mcu7t5v0__clkbuf_3 abstract view
.subckt gf180mcu_fd_sc_mcu7t5v0__clkbuf_3 I Z VDD VNW VPW VSS
.ends

* Black-box entry subcircuit for gf180mcu_fd_sc_mcu7t5v0__clkbuf_2 abstract view
.subckt gf180mcu_fd_sc_mcu7t5v0__clkbuf_2 I Z VDD VNW VPW VSS
.ends

* Black-box entry subcircuit for gf180mcu_fd_sc_mcu7t5v0__nor2_2 abstract view
.subckt gf180mcu_fd_sc_mcu7t5v0__nor2_2 A1 A2 ZN VDD VNW VPW VSS
.ends

* Black-box entry subcircuit for gf180mcu_fd_sc_mcu7t5v0__aoi21_2 abstract view
.subckt gf180mcu_fd_sc_mcu7t5v0__aoi21_2 A1 A2 B ZN VDD VNW VPW VSS
.ends

* Black-box entry subcircuit for gf180mcu_fd_sc_mcu7t5v0__nand2_1 abstract view
.subckt gf180mcu_fd_sc_mcu7t5v0__nand2_1 A1 A2 ZN VDD VNW VPW VSS
.ends

* Black-box entry subcircuit for gf180mcu_fd_sc_mcu7t5v0__oai22_1 abstract view
.subckt gf180mcu_fd_sc_mcu7t5v0__oai22_1 A1 A2 B1 B2 ZN VDD VNW VPW VSS
.ends

* Black-box entry subcircuit for gf180mcu_fd_sc_mcu7t5v0__mux2_2 abstract view
.subckt gf180mcu_fd_sc_mcu7t5v0__mux2_2 I0 I1 S Z VDD VNW VPW VSS
.ends

* Black-box entry subcircuit for gf180mcu_fd_sc_mcu7t5v0__nor2_1 abstract view
.subckt gf180mcu_fd_sc_mcu7t5v0__nor2_1 A1 A2 ZN VDD VNW VPW VSS
.ends

* Black-box entry subcircuit for gf180mcu_fd_sc_mcu7t5v0__oai31_2 abstract view
.subckt gf180mcu_fd_sc_mcu7t5v0__oai31_2 A1 A2 A3 B ZN VDD VNW VPW VSS
.ends

* Black-box entry subcircuit for gf180mcu_fd_sc_mcu7t5v0__oai221_2 abstract view
.subckt gf180mcu_fd_sc_mcu7t5v0__oai221_2 A1 A2 B1 B2 C ZN VDD VNW VPW VSS
.ends

* Black-box entry subcircuit for gf180mcu_fd_sc_mcu7t5v0__buf_3 abstract view
.subckt gf180mcu_fd_sc_mcu7t5v0__buf_3 I Z VDD VNW VPW VSS
.ends

* Black-box entry subcircuit for gf180mcu_fd_sc_mcu7t5v0__aoi221_2 abstract view
.subckt gf180mcu_fd_sc_mcu7t5v0__aoi221_2 A1 A2 B1 B2 C ZN VDD VNW VPW VSS
.ends

* Black-box entry subcircuit for gf180mcu_fd_sc_mcu7t5v0__clkbuf_1 abstract view
.subckt gf180mcu_fd_sc_mcu7t5v0__clkbuf_1 I Z VDD VNW VPW VSS
.ends

* Black-box entry subcircuit for gf180mcu_fd_sc_mcu7t5v0__and3_1 abstract view
.subckt gf180mcu_fd_sc_mcu7t5v0__and3_1 A1 A2 A3 Z VDD VNW VPW VSS
.ends

* Black-box entry subcircuit for gf180mcu_fd_sc_mcu7t5v0__oai211_4 abstract view
.subckt gf180mcu_fd_sc_mcu7t5v0__oai211_4 A1 A2 B C ZN VDD VNW VPW VSS
.ends

* Black-box entry subcircuit for gf180mcu_fd_sc_mcu7t5v0__buf_1 abstract view
.subckt gf180mcu_fd_sc_mcu7t5v0__buf_1 I Z VDD VNW VPW VSS
.ends

* Black-box entry subcircuit for gf180mcu_fd_sc_mcu7t5v0__oai221_4 abstract view
.subckt gf180mcu_fd_sc_mcu7t5v0__oai221_4 A1 A2 B1 B2 C ZN VDD VNW VPW VSS
.ends

* Black-box entry subcircuit for gf180mcu_fd_sc_mcu7t5v0__clkinv_1 abstract view
.subckt gf180mcu_fd_sc_mcu7t5v0__clkinv_1 I ZN VDD VNW VPW VSS
.ends

* Black-box entry subcircuit for gf180mcu_fd_sc_mcu7t5v0__nand3_2 abstract view
.subckt gf180mcu_fd_sc_mcu7t5v0__nand3_2 A1 A2 A3 ZN VDD VNW VPW VSS
.ends

* Black-box entry subcircuit for gf180mcu_fd_sc_mcu7t5v0__buf_8 abstract view
.subckt gf180mcu_fd_sc_mcu7t5v0__buf_8 I Z VDD VNW VPW VSS
.ends

* Black-box entry subcircuit for gf180mcu_fd_sc_mcu7t5v0__clkinv_2 abstract view
.subckt gf180mcu_fd_sc_mcu7t5v0__clkinv_2 I ZN VDD VNW VPW VSS
.ends

* Black-box entry subcircuit for gf180mcu_fd_sc_mcu7t5v0__mux4_2 abstract view
.subckt gf180mcu_fd_sc_mcu7t5v0__mux4_2 I0 I1 I2 I3 S0 S1 Z VDD VNW VPW VSS
.ends

* Black-box entry subcircuit for gf180mcu_fd_sc_mcu7t5v0__nand3_1 abstract view
.subckt gf180mcu_fd_sc_mcu7t5v0__nand3_1 A1 A2 A3 ZN VDD VNW VPW VSS
.ends

* Black-box entry subcircuit for gf180mcu_fd_sc_mcu7t5v0__oai21_1 abstract view
.subckt gf180mcu_fd_sc_mcu7t5v0__oai21_1 A1 A2 B ZN VDD VNW VPW VSS
.ends

.subckt output_mux out[0] out[10] out[11] out[1] out[2] out[3] out[4] out[5] out[6]
+ out[7] out[8] out[9] proj_out[0] proj_out[10] proj_out[11] proj_out[12] proj_out[13]
+ proj_out[14] proj_out[15] proj_out[16] proj_out[17] proj_out[18] proj_out[19] proj_out[1]
+ proj_out[20] proj_out[21] proj_out[22] proj_out[23] proj_out[24] proj_out[25] proj_out[26]
+ proj_out[27] proj_out[28] proj_out[29] proj_out[2] proj_out[30] proj_out[31] proj_out[32]
+ proj_out[33] proj_out[34] proj_out[35] proj_out[36] proj_out[37] proj_out[38] proj_out[39]
+ proj_out[3] proj_out[40] proj_out[41] proj_out[42] proj_out[43] proj_out[44] proj_out[45]
+ proj_out[46] proj_out[47] proj_out[48] proj_out[49] proj_out[4] proj_out[50] proj_out[51]
+ proj_out[52] proj_out[53] proj_out[54] proj_out[55] proj_out[56] proj_out[57] proj_out[58]
+ proj_out[59] proj_out[5] proj_out[60] proj_out[61] proj_out[62] proj_out[63] proj_out[64]
+ proj_out[65] proj_out[66] proj_out[67] proj_out[68] proj_out[69] proj_out[6] proj_out[70]
+ proj_out[71] proj_out[72] proj_out[73] proj_out[74] proj_out[75] proj_out[76] proj_out[77]
+ proj_out[78] proj_out[79] proj_out[7] proj_out[80] proj_out[81] proj_out[82] proj_out[83]
+ proj_out[84] proj_out[85] proj_out[86] proj_out[87] proj_out[88] proj_out[89] proj_out[8]
+ proj_out[90] proj_out[91] proj_out[92] proj_out[93] proj_out[94] proj_out[95] proj_out[9]
+ sel[0] sel[1] sel[2] vdd vss
XFILLER_0_32_247 vdd vdd vss vss gf180mcu_fd_sc_mcu7t5v0__fillcap_64
XANTENNA_input73_I proj_out[75] vdd vdd vss vss gf180mcu_fd_sc_mcu7t5v0__antenna
XFILLER_0_27_60 vdd vdd vss vss gf180mcu_fd_sc_mcu7t5v0__fillcap_8
XFILLER_0_17_266 vdd vdd vss vss gf180mcu_fd_sc_mcu7t5v0__fillcap_8
XFILLER_0_4_171 vdd vdd vss vss gf180mcu_fd_sc_mcu7t5v0__fillcap_4
XTAP_TAPCELL_ROW_23_194 vdd vss gf180mcu_fd_sc_mcu7t5v0__filltie
XFILLER_0_14_247 vdd vdd vss vss gf180mcu_fd_sc_mcu7t5v0__fillcap_64
XTAP_TAPCELL_ROW_6_118 vdd vss gf180mcu_fd_sc_mcu7t5v0__filltie
XTAP_TAPCELL_ROW_28_220 vdd vss gf180mcu_fd_sc_mcu7t5v0__filltie
XFILLER_0_28_317 vdd vdd vss vss gf180mcu_fd_sc_mcu7t5v0__fillcap_4
XTAP_TAPCELL_ROW_34_245 vdd vss gf180mcu_fd_sc_mcu7t5v0__filltie
XTAP_TAPCELL_ROW_11_142 vdd vss gf180mcu_fd_sc_mcu7t5v0__filltie
XFILLER_0_37_136 vdd vdd vss vss gf180mcu_fd_sc_mcu7t5v0__fillcap_4
X_131_ _027_ net18 _021_ _028_ vdd vdd vss vss gf180mcu_fd_sc_mcu7t5v0__oai21_2
X_200_ net96 net14 net53 net66 _039_ _083_ _089_ vdd vdd vss vss gf180mcu_fd_sc_mcu7t5v0__mux4_1
XANTENNA_input36_I proj_out[41] vdd vdd vss vss gf180mcu_fd_sc_mcu7t5v0__antenna
XFILLER_0_42_172 vdd vdd vss vss gf180mcu_fd_sc_mcu7t5v0__fill_2
XFILLER_0_19_72 vdd vdd vss vss gf180mcu_fd_sc_mcu7t5v0__fillcap_32
X_114_ _009_ _000_ _012_ vdd vdd vss vss gf180mcu_fd_sc_mcu7t5v0__nor2_4
XFILLER_0_8_317 vdd vdd vss vss gf180mcu_fd_sc_mcu7t5v0__fillcap_8
XFILLER_0_30_131 vdd vdd vss vss gf180mcu_fd_sc_mcu7t5v0__fill_1
XFILLER_0_15_150 vdd vdd vss vss gf180mcu_fd_sc_mcu7t5v0__fill_1
XFILLER_0_1_72 vdd vdd vss vss gf180mcu_fd_sc_mcu7t5v0__fillcap_16
XFILLER_0_21_175 vdd vdd vss vss gf180mcu_fd_sc_mcu7t5v0__fill_1
XPHY_EDGE_ROW_16_Left_59 vdd vss gf180mcu_fd_sc_mcu7t5v0__endcap
XFILLER_0_35_212 vdd vdd vss vss gf180mcu_fd_sc_mcu7t5v0__fillcap_64
XFILLER_0_41_226 vdd vdd vss vss gf180mcu_fd_sc_mcu7t5v0__fill_1
XFILLER_0_27_72 vdd vdd vss vss gf180mcu_fd_sc_mcu7t5v0__fillcap_16
XANTENNA_input66_I proj_out[69] vdd vdd vss vss gf180mcu_fd_sc_mcu7t5v0__antenna
XFILLER_0_17_278 vdd vdd vss vss gf180mcu_fd_sc_mcu7t5v0__fill_2
XTAP_TAPCELL_ROW_17_170 vdd vss gf180mcu_fd_sc_mcu7t5v0__filltie
XFILLER_0_17_212 vdd vdd vss vss gf180mcu_fd_sc_mcu7t5v0__fillcap_4
XTAP_TAPCELL_ROW_23_195 vdd vss gf180mcu_fd_sc_mcu7t5v0__filltie
XFILLER_0_1_142 vdd vdd vss vss gf180mcu_fd_sc_mcu7t5v0__fill_2
XTAP_TAPCELL_ROW_6_119 vdd vss gf180mcu_fd_sc_mcu7t5v0__filltie
XPHY_EDGE_ROW_19_Left_62 vdd vss gf180mcu_fd_sc_mcu7t5v0__endcap
XTAP_TAPCELL_ROW_34_246 vdd vss gf180mcu_fd_sc_mcu7t5v0__filltie
XTAP_TAPCELL_ROW_11_143 vdd vss gf180mcu_fd_sc_mcu7t5v0__filltie
X_130_ _010_ _027_ vdd vdd vss vss gf180mcu_fd_sc_mcu7t5v0__buf_2
XPHY_EDGE_ROW_21_Right_21 vdd vss gf180mcu_fd_sc_mcu7t5v0__endcap
XANTENNA_input29_I proj_out[35] vdd vdd vss vss gf180mcu_fd_sc_mcu7t5v0__antenna
XTAP_TAPCELL_ROW_2_100 vdd vss gf180mcu_fd_sc_mcu7t5v0__filltie
XPHY_EDGE_ROW_4_Left_47 vdd vss gf180mcu_fd_sc_mcu7t5v0__endcap
XPHY_EDGE_ROW_12_Right_12 vdd vss gf180mcu_fd_sc_mcu7t5v0__endcap
XPHY_EDGE_ROW_30_Right_30 vdd vss gf180mcu_fd_sc_mcu7t5v0__endcap
XFILLER_0_35_72 vdd vdd vss vss gf180mcu_fd_sc_mcu7t5v0__fillcap_64
XFILLER_0_34_107 vdd vdd vss vss gf180mcu_fd_sc_mcu7t5v0__fillcap_64
XFILLER_0_19_104 vdd vdd vss vss gf180mcu_fd_sc_mcu7t5v0__fill_2
XTAP_TAPCELL_ROW_0_90 vdd vss gf180mcu_fd_sc_mcu7t5v0__filltie
X_113_ _010_ _011_ vdd vdd vss vss gf180mcu_fd_sc_mcu7t5v0__clkbuf_3
XFILLER_0_24_195 vdd vdd vss vss gf180mcu_fd_sc_mcu7t5v0__fill_2
XFILLER_0_21_96 vdd vdd vss vss gf180mcu_fd_sc_mcu7t5v0__fill_1
XFILLER_0_16_107 vdd vdd vss vss gf180mcu_fd_sc_mcu7t5v0__fill_2
XFILLER_0_8_329 vdd vdd vss vss gf180mcu_fd_sc_mcu7t5v0__fill_2
XFILLER_0_15_184 vdd vdd vss vss gf180mcu_fd_sc_mcu7t5v0__fillcap_16
XANTENNA_input96_I proj_out[9] vdd vdd vss vss gf180mcu_fd_sc_mcu7t5v0__antenna
XPHY_EDGE_ROW_7_Left_50 vdd vss gf180mcu_fd_sc_mcu7t5v0__endcap
XFILLER_0_29_276 vdd vdd vss vss gf180mcu_fd_sc_mcu7t5v0__fillcap_4
XANTENNA_input11_I proj_out[19] vdd vdd vss vss gf180mcu_fd_sc_mcu7t5v0__antenna
XPHY_EDGE_ROW_6_Right_6 vdd vss gf180mcu_fd_sc_mcu7t5v0__endcap
XFILLER_0_12_187 vdd vdd vss vss gf180mcu_fd_sc_mcu7t5v0__fill_2
XPHY_EDGE_ROW_33_Left_76 vdd vss gf180mcu_fd_sc_mcu7t5v0__endcap
XFILLER_0_9_2 vdd vdd vss vss gf180mcu_fd_sc_mcu7t5v0__fillcap_64
XFILLER_0_41_216 vdd vdd vss vss gf180mcu_fd_sc_mcu7t5v0__fill_2
XANTENNA_input3_I proj_out[11] vdd vdd vss vss gf180mcu_fd_sc_mcu7t5v0__antenna
XANTENNA_input59_I proj_out[62] vdd vdd vss vss gf180mcu_fd_sc_mcu7t5v0__antenna
XTAP_TAPCELL_ROW_23_196 vdd vss gf180mcu_fd_sc_mcu7t5v0__filltie
XFILLER_0_7_72 vdd vdd vss vss gf180mcu_fd_sc_mcu7t5v0__fillcap_64
XFILLER_0_31_282 vdd vdd vss vss gf180mcu_fd_sc_mcu7t5v0__fillcap_32
XFILLER_0_14_238 vdd vdd vss vss gf180mcu_fd_sc_mcu7t5v0__fillcap_4
XFILLER_0_1_198 vdd vdd vss vss gf180mcu_fd_sc_mcu7t5v0__fillcap_4
XFILLER_0_13_282 vdd vdd vss vss gf180mcu_fd_sc_mcu7t5v0__fillcap_32
XFILLER_0_9_276 vdd vdd vss vss gf180mcu_fd_sc_mcu7t5v0__fillcap_4
XFILLER_0_11_208 vdd vdd vss vss gf180mcu_fd_sc_mcu7t5v0__fill_2
XTAP_TAPCELL_ROW_42_280 vdd vss gf180mcu_fd_sc_mcu7t5v0__filltie
XTAP_TAPCELL_ROW_34_247 vdd vss gf180mcu_fd_sc_mcu7t5v0__filltie
XTAP_TAPCELL_ROW_25_203 vdd vss gf180mcu_fd_sc_mcu7t5v0__filltie
XPHY_EDGE_ROW_20_Left_63 vdd vss gf180mcu_fd_sc_mcu7t5v0__endcap
XTAP_TAPCELL_ROW_2_101 vdd vss gf180mcu_fd_sc_mcu7t5v0__filltie
XFILLER_0_10_241 vdd vdd vss vss gf180mcu_fd_sc_mcu7t5v0__fillcap_4
XFILLER_0_33_322 vdd vdd vss vss gf180mcu_fd_sc_mcu7t5v0__fill_1
XFILLER_0_28_138 vdd vdd vss vss gf180mcu_fd_sc_mcu7t5v0__fillcap_4
XFILLER_0_36_171 vdd vdd vss vss gf180mcu_fd_sc_mcu7t5v0__fillcap_4
XFILLER_0_24_311 vdd vdd vss vss gf180mcu_fd_sc_mcu7t5v0__fill_2
X_189_ _066_ _079_ vdd vdd vss vss gf180mcu_fd_sc_mcu7t5v0__clkbuf_2
XTAP_TAPCELL_ROW_0_91 vdd vss gf180mcu_fd_sc_mcu7t5v0__filltie
XFILLER_0_42_174 vdd vdd vss vss gf180mcu_fd_sc_mcu7t5v0__fill_1
X_112_ _009_ _010_ vdd vdd vss vss gf180mcu_fd_sc_mcu7t5v0__clkbuf_2
XANTENNA_input41_I proj_out[46] vdd vdd vss vss gf180mcu_fd_sc_mcu7t5v0__antenna
XFILLER_0_15_322 vdd vdd vss vss gf180mcu_fd_sc_mcu7t5v0__fill_1
XFILLER_0_24_174 vdd vdd vss vss gf180mcu_fd_sc_mcu7t5v0__fill_1
XFILLER_0_21_314 vdd vdd vss vss gf180mcu_fd_sc_mcu7t5v0__fillcap_8
XFILLER_0_30_177 vdd vdd vss vss gf180mcu_fd_sc_mcu7t5v0__fill_1
XANTENNA_input89_I proj_out[8] vdd vdd vss vss gf180mcu_fd_sc_mcu7t5v0__antenna
XFILLER_0_1_96 vdd vdd vss vss gf180mcu_fd_sc_mcu7t5v0__fill_1
XFILLER_0_7_330 vdd vdd vss vss gf180mcu_fd_sc_mcu7t5v0__fill_1
XFILLER_0_4_311 vdd vdd vss vss gf180mcu_fd_sc_mcu7t5v0__fillcap_4
XFILLER_0_27_96 vdd vdd vss vss gf180mcu_fd_sc_mcu7t5v0__fill_1
XFILLER_0_26_247 vdd vdd vss vss gf180mcu_fd_sc_mcu7t5v0__fillcap_64
XFILLER_0_26_214 vdd vdd vss vss gf180mcu_fd_sc_mcu7t5v0__fillcap_16
XFILLER_0_1_314 vdd vdd vss vss gf180mcu_fd_sc_mcu7t5v0__fillcap_16
XTAP_TAPCELL_ROW_23_197 vdd vss gf180mcu_fd_sc_mcu7t5v0__filltie
XTAP_TAPCELL_ROW_14_153 vdd vss gf180mcu_fd_sc_mcu7t5v0__filltie
XFILLER_0_13_54 vdd vdd vss vss gf180mcu_fd_sc_mcu7t5v0__fillcap_16
XANTENNA_input71_I proj_out[73] vdd vdd vss vss gf180mcu_fd_sc_mcu7t5v0__antenna
XFILLER_0_1_133 vdd vdd vss vss gf180mcu_fd_sc_mcu7t5v0__fillcap_4
XTAP_TAPCELL_ROW_42_281 vdd vss gf180mcu_fd_sc_mcu7t5v0__filltie
XTAP_TAPCELL_ROW_2_102 vdd vss gf180mcu_fd_sc_mcu7t5v0__filltie
XFILLER_0_6_247 vdd vdd vss vss gf180mcu_fd_sc_mcu7t5v0__fillcap_64
XTAP_TAPCELL_ROW_25_204 vdd vss gf180mcu_fd_sc_mcu7t5v0__filltie
XFILLER_0_29_8 vdd vdd vss vss gf180mcu_fd_sc_mcu7t5v0__fill_2
X_188_ _025_ net39 _078_ vdd vdd vss vss gf180mcu_fd_sc_mcu7t5v0__nor2_2
XTAP_TAPCELL_ROW_0_92 vdd vss gf180mcu_fd_sc_mcu7t5v0__filltie
XFILLER_0_3_206 vdd vdd vss vss gf180mcu_fd_sc_mcu7t5v0__fillcap_4
XANTENNA_input34_I proj_out[3] vdd vdd vss vss gf180mcu_fd_sc_mcu7t5v0__antenna
XFILLER_0_19_106 vdd vdd vss vss gf180mcu_fd_sc_mcu7t5v0__fill_1
XFILLER_0_33_142 vdd vdd vss vss gf180mcu_fd_sc_mcu7t5v0__fillcap_64
X_111_ net97 _009_ vdd vdd vss vss gf180mcu_fd_sc_mcu7t5v0__clkbuf_2
XFILLER_0_18_183 vdd vdd vss vss gf180mcu_fd_sc_mcu7t5v0__fill_2
XFILLER_0_30_101 vdd vdd vss vss gf180mcu_fd_sc_mcu7t5v0__fillcap_4
XFILLER_0_15_142 vdd vdd vss vss gf180mcu_fd_sc_mcu7t5v0__fillcap_8
XFILLER_0_30_123 vdd vdd vss vss gf180mcu_fd_sc_mcu7t5v0__fillcap_8
XFILLER_0_29_212 vdd vdd vss vss gf180mcu_fd_sc_mcu7t5v0__fillcap_64
XFILLER_0_16_32 vdd vdd vss vss gf180mcu_fd_sc_mcu7t5v0__fill_2
XFILLER_0_12_101 vdd vdd vss vss gf180mcu_fd_sc_mcu7t5v0__fillcap_4
XFILLER_0_12_189 vdd vdd vss vss gf180mcu_fd_sc_mcu7t5v0__fill_1
XFILLER_0_41_207 vdd vdd vss vss gf180mcu_fd_sc_mcu7t5v0__fill_2
XTAP_TAPCELL_ROW_14_154 vdd vss gf180mcu_fd_sc_mcu7t5v0__filltie
XTAP_TAPCELL_ROW_8_130 vdd vss gf180mcu_fd_sc_mcu7t5v0__filltie
XFILLER_0_13_22 vdd vdd vss vss gf180mcu_fd_sc_mcu7t5v0__fillcap_32
XTAP_TAPCELL_ROW_37_257 vdd vss gf180mcu_fd_sc_mcu7t5v0__filltie
XFILLER_0_1_167 vdd vdd vss vss gf180mcu_fd_sc_mcu7t5v0__fill_2
XFILLER_0_1_123 vdd vdd vss vss gf180mcu_fd_sc_mcu7t5v0__fill_2
XFILLER_0_9_212 vdd vdd vss vss gf180mcu_fd_sc_mcu7t5v0__fillcap_64
XANTENNA_input64_I proj_out[67] vdd vdd vss vss gf180mcu_fd_sc_mcu7t5v0__antenna
XFILLER_0_42_324 vdd vdd vss vss gf180mcu_fd_sc_mcu7t5v0__fillcap_4
XTAP_TAPCELL_ROW_42_282 vdd vss gf180mcu_fd_sc_mcu7t5v0__filltie
XTAP_TAPCELL_ROW_25_205 vdd vss gf180mcu_fd_sc_mcu7t5v0__filltie
XTAP_TAPCELL_ROW_2_103 vdd vss gf180mcu_fd_sc_mcu7t5v0__filltie
X_187_ _046_ _074_ _077_ net109 vdd vdd vss vss gf180mcu_fd_sc_mcu7t5v0__aoi21_2
XTAP_TAPCELL_ROW_0_93 vdd vss gf180mcu_fd_sc_mcu7t5v0__filltie
XFILLER_0_10_34 vdd vdd vss vss gf180mcu_fd_sc_mcu7t5v0__fill_1
XFILLER_0_27_195 vdd vdd vss vss gf180mcu_fd_sc_mcu7t5v0__fillcap_8
XANTENNA_input27_I proj_out[33] vdd vdd vss vss gf180mcu_fd_sc_mcu7t5v0__antenna
X_110_ _002_ _007_ _008_ vdd vdd vss vss gf180mcu_fd_sc_mcu7t5v0__nand2_1
XFILLER_0_18_173 vdd vdd vss vss gf180mcu_fd_sc_mcu7t5v0__fill_2
XFILLER_0_24_187 vdd vdd vss vss gf180mcu_fd_sc_mcu7t5v0__fillcap_8
XFILLER_0_21_88 vdd vdd vss vss gf180mcu_fd_sc_mcu7t5v0__fillcap_8
XFILLER_0_21_44 vdd vdd vss vss gf180mcu_fd_sc_mcu7t5v0__fillcap_16
XFILLER_0_15_110 vdd vdd vss vss gf180mcu_fd_sc_mcu7t5v0__fill_1
XFILLER_0_32_32 vdd vdd vss vss gf180mcu_fd_sc_mcu7t5v0__fill_2
XFILLER_0_8_107 vdd vdd vss vss gf180mcu_fd_sc_mcu7t5v0__fillcap_64
XANTENNA_input94_I proj_out[94] vdd vdd vss vss gf180mcu_fd_sc_mcu7t5v0__antenna
XPHY_EDGE_ROW_28_Right_28 vdd vss gf180mcu_fd_sc_mcu7t5v0__endcap
XFILLER_0_26_238 vdd vdd vss vss gf180mcu_fd_sc_mcu7t5v0__fillcap_4
XPHY_EDGE_ROW_19_Right_19 vdd vss gf180mcu_fd_sc_mcu7t5v0__endcap
XPHY_EDGE_ROW_37_Right_37 vdd vss gf180mcu_fd_sc_mcu7t5v0__endcap
XFILLER_0_25_282 vdd vdd vss vss gf180mcu_fd_sc_mcu7t5v0__fillcap_32
XFILLER_0_17_216 vdd vdd vss vss gf180mcu_fd_sc_mcu7t5v0__fill_2
XFILLER_0_23_208 vdd vdd vss vss gf180mcu_fd_sc_mcu7t5v0__fill_2
XFILLER_0_7_2 vdd vdd vss vss gf180mcu_fd_sc_mcu7t5v0__fillcap_64
XFILLER_0_39_330 vdd vdd vss vss gf180mcu_fd_sc_mcu7t5v0__fill_1
XTAP_TAPCELL_ROW_37_258 vdd vss gf180mcu_fd_sc_mcu7t5v0__filltie
XANTENNA_input1_I proj_out[0] vdd vdd vss vss gf180mcu_fd_sc_mcu7t5v0__antenna
XFILLER_0_22_241 vdd vdd vss vss gf180mcu_fd_sc_mcu7t5v0__fillcap_4
XTAP_TAPCELL_ROW_14_155 vdd vss gf180mcu_fd_sc_mcu7t5v0__filltie
XFILLER_0_1_157 vdd vdd vss vss gf180mcu_fd_sc_mcu7t5v0__fillcap_8
XFILLER_0_1_146 vdd vdd vss vss gf180mcu_fd_sc_mcu7t5v0__fill_2
XFILLER_0_36_311 vdd vdd vss vss gf180mcu_fd_sc_mcu7t5v0__fillcap_4
XANTENNA_input57_I proj_out[60] vdd vdd vss vss gf180mcu_fd_sc_mcu7t5v0__antenna
XTAP_TAPCELL_ROW_42_283 vdd vss gf180mcu_fd_sc_mcu7t5v0__filltie
XFILLER_0_27_322 vdd vdd vss vss gf180mcu_fd_sc_mcu7t5v0__fill_1
XFILLER_0_33_314 vdd vdd vss vss gf180mcu_fd_sc_mcu7t5v0__fillcap_8
XTAP_TAPCELL_ROW_25_206 vdd vss gf180mcu_fd_sc_mcu7t5v0__filltie
XFILLER_0_18_311 vdd vdd vss vss gf180mcu_fd_sc_mcu7t5v0__fill_2
XFILLER_0_5_282 vdd vdd vss vss gf180mcu_fd_sc_mcu7t5v0__fillcap_32
XPHY_EDGE_ROW_24_Left_67 vdd vss gf180mcu_fd_sc_mcu7t5v0__endcap
X_186_ _063_ _075_ _076_ _068_ _077_ vdd vdd vss vss gf180mcu_fd_sc_mcu7t5v0__oai22_1
XFILLER_0_19_44 vdd vdd vss vss gf180mcu_fd_sc_mcu7t5v0__fillcap_16
XFILLER_0_15_314 vdd vdd vss vss gf180mcu_fd_sc_mcu7t5v0__fillcap_8
XTAP_TAPCELL_ROW_0_94 vdd vss gf180mcu_fd_sc_mcu7t5v0__filltie
XFILLER_0_18_185 vdd vdd vss vss gf180mcu_fd_sc_mcu7t5v0__fill_1
XFILLER_0_24_199 vdd vdd vss vss gf180mcu_fd_sc_mcu7t5v0__fillcap_4
XFILLER_0_21_12 vdd vdd vss vss gf180mcu_fd_sc_mcu7t5v0__fillcap_32
X_169_ net88 _055_ _061_ net75 _062_ vdd vdd vss vss gf180mcu_fd_sc_mcu7t5v0__oai22_1
XFILLER_0_12_317 vdd vdd vss vss gf180mcu_fd_sc_mcu7t5v0__fill_2
XFILLER_0_38_247 vdd vdd vss vss gf180mcu_fd_sc_mcu7t5v0__fillcap_64
XFILLER_0_1_66 vdd vdd vss vss gf180mcu_fd_sc_mcu7t5v0__fillcap_4
XFILLER_0_1_88 vdd vdd vss vss gf180mcu_fd_sc_mcu7t5v0__fillcap_8
XFILLER_0_16_34 vdd vdd vss vss gf180mcu_fd_sc_mcu7t5v0__fill_1
XFILLER_0_16_12 vdd vdd vss vss gf180mcu_fd_sc_mcu7t5v0__fill_2
XANTENNA_input87_I proj_out[88] vdd vdd vss vss gf180mcu_fd_sc_mcu7t5v0__antenna
XFILLER_0_35_206 vdd vdd vss vss gf180mcu_fd_sc_mcu7t5v0__fillcap_4
XPHY_EDGE_ROW_27_Left_70 vdd vss gf180mcu_fd_sc_mcu7t5v0__endcap
XFILLER_0_4_325 vdd vdd vss vss gf180mcu_fd_sc_mcu7t5v0__fillcap_4
XPHY_EDGE_ROW_11_Left_54 vdd vss gf180mcu_fd_sc_mcu7t5v0__endcap
XFILLER_0_41_209 vdd vdd vss vss gf180mcu_fd_sc_mcu7t5v0__fill_1
XANTENNA__102__I net98 vdd vdd vss vss gf180mcu_fd_sc_mcu7t5v0__antenna
XFILLER_0_11_180 vdd vdd vss vss gf180mcu_fd_sc_mcu7t5v0__fillcap_16
XFILLER_0_40_242 vdd vdd vss vss gf180mcu_fd_sc_mcu7t5v0__fill_2
XFILLER_0_27_88 vdd vdd vss vss gf180mcu_fd_sc_mcu7t5v0__fillcap_8
XFILLER_0_27_44 vdd vdd vss vss gf180mcu_fd_sc_mcu7t5v0__fillcap_16
XFILLER_0_4_177 vdd vdd vss vss gf180mcu_fd_sc_mcu7t5v0__fillcap_64
XTAP_TAPCELL_ROW_14_156 vdd vss gf180mcu_fd_sc_mcu7t5v0__filltie
XTAP_TAPCELL_ROW_37_259 vdd vss gf180mcu_fd_sc_mcu7t5v0__filltie
XTAP_TAPCELL_ROW_5_113 vdd vss gf180mcu_fd_sc_mcu7t5v0__filltie
XFILLER_0_24_34 vdd vdd vss vss gf180mcu_fd_sc_mcu7t5v0__fill_1
XTAP_TAPCELL_ROW_42_284 vdd vss gf180mcu_fd_sc_mcu7t5v0__filltie
XTAP_TAPCELL_ROW_33_240 vdd vss gf180mcu_fd_sc_mcu7t5v0__filltie
X_185_ net25 net38 _066_ _076_ vdd vdd vss vss gf180mcu_fd_sc_mcu7t5v0__mux2_2
XFILLER_0_35_66 vdd vdd vss vss gf180mcu_fd_sc_mcu7t5v0__fillcap_4
XFILLER_0_27_142 vdd vdd vss vss gf180mcu_fd_sc_mcu7t5v0__fillcap_4
XFILLER_0_19_12 vdd vdd vss vss gf180mcu_fd_sc_mcu7t5v0__fillcap_32
XPHY_EDGE_ROW_41_Left_84 vdd vss gf180mcu_fd_sc_mcu7t5v0__endcap
XFILLER_0_24_101 vdd vdd vss vss gf180mcu_fd_sc_mcu7t5v0__fillcap_4
XFILLER_0_21_68 vdd vdd vss vss gf180mcu_fd_sc_mcu7t5v0__fill_2
X_168_ _060_ _001_ _061_ vdd vdd vss vss gf180mcu_fd_sc_mcu7t5v0__nor2_1
XANTENNA_input32_I proj_out[38] vdd vdd vss vss gf180mcu_fd_sc_mcu7t5v0__antenna
XFILLER_0_27_8 vdd vdd vss vss gf180mcu_fd_sc_mcu7t5v0__fill_2
XFILLER_0_32_34 vdd vdd vss vss gf180mcu_fd_sc_mcu7t5v0__fill_1
XFILLER_0_32_12 vdd vdd vss vss gf180mcu_fd_sc_mcu7t5v0__fillcap_16
XPHY_EDGE_ROW_1_Right_1 vdd vss gf180mcu_fd_sc_mcu7t5v0__endcap
XFILLER_0_7_142 vdd vdd vss vss gf180mcu_fd_sc_mcu7t5v0__fillcap_64
XFILLER_0_27_12 vdd vdd vss vss gf180mcu_fd_sc_mcu7t5v0__fillcap_32
XFILLER_0_4_101 vdd vdd vss vss gf180mcu_fd_sc_mcu7t5v0__fillcap_4
XFILLER_0_31_276 vdd vdd vss vss gf180mcu_fd_sc_mcu7t5v0__fillcap_4
XFILLER_0_7_66 vdd vdd vss vss gf180mcu_fd_sc_mcu7t5v0__fillcap_4
XTAP_TAPCELL_ROW_22_190 vdd vss gf180mcu_fd_sc_mcu7t5v0__filltie
XTAP_TAPCELL_ROW_14_157 vdd vss gf180mcu_fd_sc_mcu7t5v0__filltie
XFILLER_0_1_148 vdd vdd vss vss gf180mcu_fd_sc_mcu7t5v0__fill_1
XFILLER_0_13_14 vdd vdd vss vss gf180mcu_fd_sc_mcu7t5v0__fill_2
XTAP_TAPCELL_ROW_5_114 vdd vss gf180mcu_fd_sc_mcu7t5v0__filltie
XTAP_TAPCELL_ROW_28_216 vdd vss gf180mcu_fd_sc_mcu7t5v0__filltie
XTAP_TAPCELL_ROW_42_285 vdd vss gf180mcu_fd_sc_mcu7t5v0__filltie
XFILLER_0_40_34 vdd vdd vss vss gf180mcu_fd_sc_mcu7t5v0__fill_1
XFILLER_0_4_34 vdd vdd vss vss gf180mcu_fd_sc_mcu7t5v0__fill_1
XTAP_TAPCELL_ROW_33_241 vdd vss gf180mcu_fd_sc_mcu7t5v0__filltie
XANTENNA_input62_I proj_out[65] vdd vdd vss vss gf180mcu_fd_sc_mcu7t5v0__antenna
XFILLER_0_19_68 vdd vdd vss vss gf180mcu_fd_sc_mcu7t5v0__fill_2
XFILLER_0_10_37 vdd vdd vss vss gf180mcu_fd_sc_mcu7t5v0__fillcap_64
X_184_ net78 net11 net51 net64 _064_ _019_ _075_ vdd vdd vss vss gf180mcu_fd_sc_mcu7t5v0__mux4_1
XFILLER_0_2_243 vdd vdd vss vss gf180mcu_fd_sc_mcu7t5v0__fill_2
X_167_ _024_ _060_ vdd vdd vss vss gf180mcu_fd_sc_mcu7t5v0__clkbuf_2
XANTENNA_input25_I proj_out[31] vdd vdd vss vss gf180mcu_fd_sc_mcu7t5v0__antenna
XFILLER_0_37_282 vdd vdd vss vss gf180mcu_fd_sc_mcu7t5v0__fillcap_32
XFILLER_0_20_171 vdd vdd vss vss gf180mcu_fd_sc_mcu7t5v0__fillcap_4
XFILLER_0_34_241 vdd vdd vss vss gf180mcu_fd_sc_mcu7t5v0__fillcap_4
XFILLER_0_27_68 vdd vdd vss vss gf180mcu_fd_sc_mcu7t5v0__fill_2
XFILLER_0_19_282 vdd vdd vss vss gf180mcu_fd_sc_mcu7t5v0__fillcap_32
XFILLER_0_40_244 vdd vdd vss vss gf180mcu_fd_sc_mcu7t5v0__fill_1
XANTENNA_input92_I proj_out[92] vdd vdd vss vss gf180mcu_fd_sc_mcu7t5v0__antenna
XPHY_EDGE_ROW_24_Right_24 vdd vss gf180mcu_fd_sc_mcu7t5v0__endcap
XFILLER_0_16_241 vdd vdd vss vss gf180mcu_fd_sc_mcu7t5v0__fillcap_4
XPHY_EDGE_ROW_15_Right_15 vdd vss gf180mcu_fd_sc_mcu7t5v0__endcap
XFILLER_0_0_330 vdd vdd vss vss gf180mcu_fd_sc_mcu7t5v0__fill_1
XPHY_EDGE_ROW_42_Right_42 vdd vss gf180mcu_fd_sc_mcu7t5v0__endcap
XPHY_EDGE_ROW_33_Right_33 vdd vss gf180mcu_fd_sc_mcu7t5v0__endcap
XFILLER_0_22_233 vdd vdd vss vss gf180mcu_fd_sc_mcu7t5v0__fill_2
XFILLER_0_22_200 vdd vdd vss vss gf180mcu_fd_sc_mcu7t5v0__fill_1
XTAP_TAPCELL_ROW_22_191 vdd vss gf180mcu_fd_sc_mcu7t5v0__filltie
XFILLER_0_38_34 vdd vdd vss vss gf180mcu_fd_sc_mcu7t5v0__fill_1
XFILLER_0_36_325 vdd vdd vss vss gf180mcu_fd_sc_mcu7t5v0__fillcap_4
XTAP_TAPCELL_ROW_28_217 vdd vss gf180mcu_fd_sc_mcu7t5v0__filltie
XFILLER_0_5_2 vdd vdd vss vss gf180mcu_fd_sc_mcu7t5v0__fillcap_64
XTAP_TAPCELL_ROW_5_115 vdd vss gf180mcu_fd_sc_mcu7t5v0__filltie
XFILLER_0_42_328 vdd vdd vss vss gf180mcu_fd_sc_mcu7t5v0__fill_2
XTAP_TAPCELL_ROW_42_286 vdd vss gf180mcu_fd_sc_mcu7t5v0__filltie
XFILLER_0_27_314 vdd vdd vss vss gf180mcu_fd_sc_mcu7t5v0__fillcap_8
XFILLER_0_24_14 vdd vdd vss vss gf180mcu_fd_sc_mcu7t5v0__fill_2
XFILLER_0_10_247 vdd vdd vss vss gf180mcu_fd_sc_mcu7t5v0__fillcap_64
XTAP_TAPCELL_ROW_33_242 vdd vss gf180mcu_fd_sc_mcu7t5v0__filltie
XANTENNA_input55_I proj_out[59] vdd vdd vss vss gf180mcu_fd_sc_mcu7t5v0__antenna
XFILLER_0_36_177 vdd vdd vss vss gf180mcu_fd_sc_mcu7t5v0__fillcap_64
XFILLER_0_24_317 vdd vdd vss vss gf180mcu_fd_sc_mcu7t5v0__fill_2
X_183_ net91 _055_ _061_ net77 _074_ vdd vdd vss vss gf180mcu_fd_sc_mcu7t5v0__oai22_1
XTAP_TAPCELL_ROW_0_86 vdd vss gf180mcu_fd_sc_mcu7t5v0__filltie
XFILLER_0_33_136 vdd vdd vss vss gf180mcu_fd_sc_mcu7t5v0__fillcap_4
X_166_ _046_ _054_ _058_ _059_ net106 vdd vdd vss vss gf180mcu_fd_sc_mcu7t5v0__oai31_2
XFILLER_0_15_136 vdd vdd vss vss gf180mcu_fd_sc_mcu7t5v0__fillcap_4
XFILLER_0_7_314 vdd vdd vss vss gf180mcu_fd_sc_mcu7t5v0__fillcap_16
XANTENNA_input18_I proj_out[25] vdd vdd vss vss gf180mcu_fd_sc_mcu7t5v0__antenna
XFILLER_0_29_206 vdd vdd vss vss gf180mcu_fd_sc_mcu7t5v0__fillcap_4
XANTENNA__140__A2 net72 vdd vdd vss vss gf180mcu_fd_sc_mcu7t5v0__antenna
X_149_ _016_ _044_ vdd vdd vss vss gf180mcu_fd_sc_mcu7t5v0__clkbuf_3
XFILLER_0_16_37 vdd vdd vss vss gf180mcu_fd_sc_mcu7t5v0__fillcap_64
XFILLER_0_4_317 vdd vdd vss vss gf180mcu_fd_sc_mcu7t5v0__fillcap_8
XFILLER_0_12_139 vdd vdd vss vss gf180mcu_fd_sc_mcu7t5v0__fillcap_16
XFILLER_0_32_8 vdd vdd vss vss gf180mcu_fd_sc_mcu7t5v0__fill_2
XFILLER_0_22_91 vdd vdd vss vss gf180mcu_fd_sc_mcu7t5v0__fill_2
XFILLER_0_11_150 vdd vdd vss vss gf180mcu_fd_sc_mcu7t5v0__fillcap_4
XFILLER_0_40_201 vdd vdd vss vss gf180mcu_fd_sc_mcu7t5v0__fill_2
XTAP_TAPCELL_ROW_17_167 vdd vss gf180mcu_fd_sc_mcu7t5v0__filltie
XPHY_EDGE_ROW_15_Left_58 vdd vss gf180mcu_fd_sc_mcu7t5v0__endcap
XANTENNA_input85_I proj_out[86] vdd vdd vss vss gf180mcu_fd_sc_mcu7t5v0__antenna
XFILLER_0_31_212 vdd vdd vss vss gf180mcu_fd_sc_mcu7t5v0__fillcap_64
XTAP_TAPCELL_ROW_22_192 vdd vss gf180mcu_fd_sc_mcu7t5v0__filltie
XFILLER_0_1_139 vdd vdd vss vss gf180mcu_fd_sc_mcu7t5v0__fill_1
XFILLER_0_9_206 vdd vdd vss vss gf180mcu_fd_sc_mcu7t5v0__fillcap_4
XTAP_TAPCELL_ROW_28_218 vdd vss gf180mcu_fd_sc_mcu7t5v0__filltie
XTAP_TAPCELL_ROW_5_116 vdd vss gf180mcu_fd_sc_mcu7t5v0__filltie
XFILLER_0_13_212 vdd vdd vss vss gf180mcu_fd_sc_mcu7t5v0__fill_2
XTAP_TAPCELL_ROW_42_287 vdd vss gf180mcu_fd_sc_mcu7t5v0__filltie
XFILLER_0_39_142 vdd vdd vss vss gf180mcu_fd_sc_mcu7t5v0__fillcap_64
XFILLER_0_24_37 vdd vdd vss vss gf180mcu_fd_sc_mcu7t5v0__fillcap_64
XANTENNA_input48_I proj_out[52] vdd vdd vss vss gf180mcu_fd_sc_mcu7t5v0__antenna
XPHY_EDGE_ROW_18_Left_61 vdd vss gf180mcu_fd_sc_mcu7t5v0__endcap
XFILLER_0_36_101 vdd vdd vss vss gf180mcu_fd_sc_mcu7t5v0__fillcap_4
XANTENNA__157__S1 _009_ vdd vdd vss vss gf180mcu_fd_sc_mcu7t5v0__antenna
X_182_ _046_ _070_ _073_ net108 vdd vdd vss vss gf180mcu_fd_sc_mcu7t5v0__aoi21_2
XTAP_TAPCELL_ROW_0_87 vdd vss gf180mcu_fd_sc_mcu7t5v0__filltie
XFILLER_0_42_104 vdd vdd vss vss gf180mcu_fd_sc_mcu7t5v0__fill_2
XPHY_EDGE_ROW_3_Left_46 vdd vss gf180mcu_fd_sc_mcu7t5v0__endcap
X_165_ _011_ net74 net87 _013_ _017_ _059_ vdd vdd vss vss gf180mcu_fd_sc_mcu7t5v0__oai221_2
XFILLER_0_20_321 vdd vdd vss vss gf180mcu_fd_sc_mcu7t5v0__fill_2
XFILLER_0_39_2 vdd vdd vss vss gf180mcu_fd_sc_mcu7t5v0__fillcap_64
XFILLER_0_30_107 vdd vdd vss vss gf180mcu_fd_sc_mcu7t5v0__fillcap_16
XFILLER_0_15_104 vdd vdd vss vss gf180mcu_fd_sc_mcu7t5v0__fillcap_4
XFILLER_0_11_60 vdd vdd vss vss gf180mcu_fd_sc_mcu7t5v0__fillcap_8
XFILLER_0_11_321 vdd vdd vss vss gf180mcu_fd_sc_mcu7t5v0__fill_2
XFILLER_0_32_37 vdd vdd vss vss gf180mcu_fd_sc_mcu7t5v0__fillcap_64
X_148_ _012_ _043_ vdd vdd vss vss gf180mcu_fd_sc_mcu7t5v0__buf_3
XFILLER_0_16_16 vdd vdd vss vss gf180mcu_fd_sc_mcu7t5v0__fillcap_16
XFILLER_0_4_329 vdd vdd vss vss gf180mcu_fd_sc_mcu7t5v0__fill_2
XFILLER_0_12_107 vdd vdd vss vss gf180mcu_fd_sc_mcu7t5v0__fillcap_32
XFILLER_0_25_8 vdd vdd vss vss gf180mcu_fd_sc_mcu7t5v0__fill_2
XANTENNA_input30_I proj_out[36] vdd vdd vss vss gf180mcu_fd_sc_mcu7t5v0__antenna
XTAP_TAPCELL_ROW_17_168 vdd vss gf180mcu_fd_sc_mcu7t5v0__filltie
XANTENNA_input78_I proj_out[7] vdd vdd vss vss gf180mcu_fd_sc_mcu7t5v0__antenna
XPHY_EDGE_ROW_5_Right_5 vdd vss gf180mcu_fd_sc_mcu7t5v0__endcap
XPHY_EDGE_ROW_32_Left_75 vdd vss gf180mcu_fd_sc_mcu7t5v0__endcap
XTAP_TAPCELL_ROW_22_193 vdd vss gf180mcu_fd_sc_mcu7t5v0__filltie
XTAP_TAPCELL_ROW_36_252 vdd vss gf180mcu_fd_sc_mcu7t5v0__filltie
XTAP_TAPCELL_ROW_28_219 vdd vss gf180mcu_fd_sc_mcu7t5v0__filltie
XFILLER_0_42_308 vdd vdd vss vss gf180mcu_fd_sc_mcu7t5v0__fillcap_16