* NGSPICE file created from rotfpga2a.ext - technology: gf180mcuD

* Black-box entry subcircuit for gf180mcu_fd_sc_mcu7t5v0__oai211_4 abstract view
.subckt gf180mcu_fd_sc_mcu7t5v0__oai211_4 A1 A2 B C ZN VDD VNW VPW VSS
.ends

* Black-box entry subcircuit for gf180mcu_fd_sc_mcu7t5v0__aoi21_4 abstract view
.subckt gf180mcu_fd_sc_mcu7t5v0__aoi21_4 A1 A2 B ZN VDD VNW VPW VSS
.ends

* Black-box entry subcircuit for gf180mcu_fd_sc_mcu7t5v0__filltie abstract view
.subckt gf180mcu_fd_sc_mcu7t5v0__filltie VDD VSS
.ends

* Black-box entry subcircuit for gf180mcu_fd_sc_mcu7t5v0__oai31_2 abstract view
.subckt gf180mcu_fd_sc_mcu7t5v0__oai31_2 A1 A2 A3 B ZN VDD VNW VPW VSS
.ends

* Black-box entry subcircuit for gf180mcu_fd_sc_mcu7t5v0__antenna abstract view
.subckt gf180mcu_fd_sc_mcu7t5v0__antenna I VDD VNW VPW VSS
.ends

* Black-box entry subcircuit for gf180mcu_fd_sc_mcu7t5v0__aoi21_1 abstract view
.subckt gf180mcu_fd_sc_mcu7t5v0__aoi21_1 A1 A2 B ZN VDD VNW VPW VSS
.ends

* Black-box entry subcircuit for gf180mcu_fd_sc_mcu7t5v0__latq_1 abstract view
.subckt gf180mcu_fd_sc_mcu7t5v0__latq_1 D E Q VDD VNW VPW VSS
.ends

* Black-box entry subcircuit for gf180mcu_fd_sc_mcu7t5v0__oai211_2 abstract view
.subckt gf180mcu_fd_sc_mcu7t5v0__oai211_2 A1 A2 B C ZN VDD VNW VPW VSS
.ends

* Black-box entry subcircuit for gf180mcu_fd_sc_mcu7t5v0__fill_2 abstract view
.subckt gf180mcu_fd_sc_mcu7t5v0__fill_2 VDD VNW VPW VSS
.ends

* Black-box entry subcircuit for gf180mcu_fd_sc_mcu7t5v0__fill_1 abstract view
.subckt gf180mcu_fd_sc_mcu7t5v0__fill_1 VDD VNW VPW VSS
.ends

* Black-box entry subcircuit for gf180mcu_fd_sc_mcu7t5v0__dffq_1 abstract view
.subckt gf180mcu_fd_sc_mcu7t5v0__dffq_1 D CLK Q VDD VNW VPW VSS
.ends

* Black-box entry subcircuit for gf180mcu_fd_sc_mcu7t5v0__latq_2 abstract view
.subckt gf180mcu_fd_sc_mcu7t5v0__latq_2 D E Q VDD VNW VPW VSS
.ends

* Black-box entry subcircuit for gf180mcu_fd_sc_mcu7t5v0__buf_1 abstract view
.subckt gf180mcu_fd_sc_mcu7t5v0__buf_1 I Z VDD VNW VPW VSS
.ends

* Black-box entry subcircuit for gf180mcu_fd_sc_mcu7t5v0__nand2_1 abstract view
.subckt gf180mcu_fd_sc_mcu7t5v0__nand2_1 A1 A2 ZN VDD VNW VPW VSS
.ends

* Black-box entry subcircuit for gf180mcu_fd_sc_mcu7t5v0__clkbuf_1 abstract view
.subckt gf180mcu_fd_sc_mcu7t5v0__clkbuf_1 I Z VDD VNW VPW VSS
.ends

* Black-box entry subcircuit for gf180mcu_fd_sc_mcu7t5v0__clkinv_1 abstract view
.subckt gf180mcu_fd_sc_mcu7t5v0__clkinv_1 I ZN VDD VNW VPW VSS
.ends

* Black-box entry subcircuit for gf180mcu_fd_sc_mcu7t5v0__fillcap_4 abstract view
.subckt gf180mcu_fd_sc_mcu7t5v0__fillcap_4 VDD VNW VPW VSS
.ends

* Black-box entry subcircuit for gf180mcu_fd_sc_mcu7t5v0__aoi211_1 abstract view
.subckt gf180mcu_fd_sc_mcu7t5v0__aoi211_1 A1 A2 B C ZN VDD VNW VPW VSS
.ends

* Black-box entry subcircuit for gf180mcu_fd_sc_mcu7t5v0__oai31_4 abstract view
.subckt gf180mcu_fd_sc_mcu7t5v0__oai31_4 A1 A2 A3 B ZN VDD VNW VPW VSS
.ends

* Black-box entry subcircuit for gf180mcu_fd_sc_mcu7t5v0__fillcap_32 abstract view
.subckt gf180mcu_fd_sc_mcu7t5v0__fillcap_32 VDD VNW VPW VSS
.ends

* Black-box entry subcircuit for gf180mcu_fd_sc_mcu7t5v0__nand3_1 abstract view
.subckt gf180mcu_fd_sc_mcu7t5v0__nand3_1 A1 A2 A3 ZN VDD VNW VPW VSS
.ends

* Black-box entry subcircuit for gf180mcu_fd_sc_mcu7t5v0__buf_2 abstract view
.subckt gf180mcu_fd_sc_mcu7t5v0__buf_2 I Z VDD VNW VPW VSS
.ends

* Black-box entry subcircuit for gf180mcu_fd_sc_mcu7t5v0__and2_1 abstract view
.subckt gf180mcu_fd_sc_mcu7t5v0__and2_1 A1 A2 Z VDD VNW VPW VSS
.ends

* Black-box entry subcircuit for gf180mcu_fd_sc_mcu7t5v0__oai21_1 abstract view
.subckt gf180mcu_fd_sc_mcu7t5v0__oai21_1 A1 A2 B ZN VDD VNW VPW VSS
.ends

* Black-box entry subcircuit for gf180mcu_fd_sc_mcu7t5v0__oai211_1 abstract view
.subckt gf180mcu_fd_sc_mcu7t5v0__oai211_1 A1 A2 B C ZN VDD VNW VPW VSS
.ends

* Black-box entry subcircuit for gf180mcu_fd_sc_mcu7t5v0__aoi211_4 abstract view
.subckt gf180mcu_fd_sc_mcu7t5v0__aoi211_4 A1 A2 B C ZN VDD VNW VPW VSS
.ends

* Black-box entry subcircuit for gf180mcu_fd_sc_mcu7t5v0__or2_1 abstract view
.subckt gf180mcu_fd_sc_mcu7t5v0__or2_1 A1 A2 Z VDD VNW VPW VSS
.ends

* Black-box entry subcircuit for gf180mcu_fd_sc_mcu7t5v0__mux2_2 abstract view
.subckt gf180mcu_fd_sc_mcu7t5v0__mux2_2 I0 I1 S Z VDD VNW VPW VSS
.ends

* Black-box entry subcircuit for gf180mcu_fd_sc_mcu7t5v0__latq_4 abstract view
.subckt gf180mcu_fd_sc_mcu7t5v0__latq_4 D E Q VDD VNW VPW VSS
.ends

* Black-box entry subcircuit for gf180mcu_fd_sc_mcu7t5v0__oai21_2 abstract view
.subckt gf180mcu_fd_sc_mcu7t5v0__oai21_2 A1 A2 B ZN VDD VNW VPW VSS
.ends

* Black-box entry subcircuit for gf180mcu_fd_sc_mcu7t5v0__nor3_1 abstract view
.subckt gf180mcu_fd_sc_mcu7t5v0__nor3_1 A1 A2 A3 ZN VDD VNW VPW VSS
.ends

* Black-box entry subcircuit for gf180mcu_fd_sc_mcu7t5v0__oai22_1 abstract view
.subckt gf180mcu_fd_sc_mcu7t5v0__oai22_1 A1 A2 B1 B2 ZN VDD VNW VPW VSS
.ends

* Black-box entry subcircuit for gf180mcu_fd_sc_mcu7t5v0__clkinv_3 abstract view
.subckt gf180mcu_fd_sc_mcu7t5v0__clkinv_3 I ZN VDD VNW VPW VSS
.ends

* Black-box entry subcircuit for gf180mcu_fd_sc_mcu7t5v0__fillcap_64 abstract view
.subckt gf180mcu_fd_sc_mcu7t5v0__fillcap_64 VDD VNW VPW VSS
.ends

* Black-box entry subcircuit for gf180mcu_fd_sc_mcu7t5v0__clkbuf_2 abstract view
.subckt gf180mcu_fd_sc_mcu7t5v0__clkbuf_2 I Z VDD VNW VPW VSS
.ends

* Black-box entry subcircuit for gf180mcu_fd_sc_mcu7t5v0__aoi21_2 abstract view
.subckt gf180mcu_fd_sc_mcu7t5v0__aoi21_2 A1 A2 B ZN VDD VNW VPW VSS
.ends

* Black-box entry subcircuit for gf180mcu_fd_sc_mcu7t5v0__buf_8 abstract view
.subckt gf180mcu_fd_sc_mcu7t5v0__buf_8 I Z VDD VNW VPW VSS
.ends

* Black-box entry subcircuit for gf180mcu_fd_sc_mcu7t5v0__nand3_2 abstract view
.subckt gf180mcu_fd_sc_mcu7t5v0__nand3_2 A1 A2 A3 ZN VDD VNW VPW VSS
.ends

* Black-box entry subcircuit for gf180mcu_fd_sc_mcu7t5v0__fillcap_16 abstract view
.subckt gf180mcu_fd_sc_mcu7t5v0__fillcap_16 VDD VNW VPW VSS
.ends

* Black-box entry subcircuit for gf180mcu_fd_sc_mcu7t5v0__latrnq_1 abstract view
.subckt gf180mcu_fd_sc_mcu7t5v0__latrnq_1 D E RN Q VDD VNW VPW VSS
.ends

* Black-box entry subcircuit for gf180mcu_fd_sc_mcu7t5v0__endcap abstract view
.subckt gf180mcu_fd_sc_mcu7t5v0__endcap VDD VSS
.ends

* Black-box entry subcircuit for gf180mcu_fd_sc_mcu7t5v0__fillcap_8 abstract view
.subckt gf180mcu_fd_sc_mcu7t5v0__fillcap_8 VDD VNW VPW VSS
.ends

* Black-box entry subcircuit for gf180mcu_fd_sc_mcu7t5v0__inv_1 abstract view
.subckt gf180mcu_fd_sc_mcu7t5v0__inv_1 I ZN VDD VNW VPW VSS
.ends

* Black-box entry subcircuit for gf180mcu_fd_sc_mcu7t5v0__clkinv_2 abstract view
.subckt gf180mcu_fd_sc_mcu7t5v0__clkinv_2 I ZN VDD VNW VPW VSS
.ends

* Black-box entry subcircuit for gf180mcu_fd_sc_mcu7t5v0__oai31_1 abstract view
.subckt gf180mcu_fd_sc_mcu7t5v0__oai31_1 A1 A2 A3 B ZN VDD VNW VPW VSS
.ends

* Black-box entry subcircuit for gf180mcu_fd_sc_mcu7t5v0__nor2_1 abstract view
.subckt gf180mcu_fd_sc_mcu7t5v0__nor2_1 A1 A2 ZN VDD VNW VPW VSS
.ends

* Black-box entry subcircuit for gf180mcu_fd_sc_mcu7t5v0__aoi211_2 abstract view
.subckt gf180mcu_fd_sc_mcu7t5v0__aoi211_2 A1 A2 B C ZN VDD VNW VPW VSS
.ends

* Black-box entry subcircuit for gf180mcu_fd_sc_mcu7t5v0__inv_2 abstract view
.subckt gf180mcu_fd_sc_mcu7t5v0__inv_2 I ZN VDD VNW VPW VSS
.ends

* Black-box entry subcircuit for gf180mcu_fd_sc_mcu7t5v0__nor2_2 abstract view
.subckt gf180mcu_fd_sc_mcu7t5v0__nor2_2 A1 A2 ZN VDD VNW VPW VSS
.ends

* Black-box entry subcircuit for gf180mcu_fd_sc_mcu7t5v0__nor3_2 abstract view
.subckt gf180mcu_fd_sc_mcu7t5v0__nor3_2 A1 A2 A3 ZN VDD VNW VPW VSS
.ends

* Black-box entry subcircuit for gf180mcu_fd_sc_mcu7t5v0__oai21_4 abstract view
.subckt gf180mcu_fd_sc_mcu7t5v0__oai21_4 A1 A2 B ZN VDD VNW VPW VSS
.ends

* Black-box entry subcircuit for gf180mcu_fd_sc_mcu7t5v0__tiel abstract view
.subckt gf180mcu_fd_sc_mcu7t5v0__tiel ZN VDD VNW VPW VSS
.ends

* Black-box entry subcircuit for gf180mcu_fd_sc_mcu7t5v0__or2_2 abstract view
.subckt gf180mcu_fd_sc_mcu7t5v0__or2_2 A1 A2 Z VDD VNW VPW VSS
.ends

* Black-box entry subcircuit for gf180mcu_fd_sc_mcu7t5v0__or3_1 abstract view
.subckt gf180mcu_fd_sc_mcu7t5v0__or3_1 A1 A2 A3 Z VDD VNW VPW VSS
.ends

.subckt rotfpga2a clk in[0] in[10] in[11] in[12] in[13] in[14] in[15] in[16] in[17]
+ in[1] in[2] in[3] in[4] in[5] in[6] in[7] in[8] in[9] out[0] out[10] out[11] out[1]
+ out[2] out[3] out[4] out[5] out[6] out[7] out[8] out[9] rst_n vdd vss
X_2106_ _1593_ _1570_ _1571_ _1578_ _1594_ vdd vdd vss vss gf180mcu_fd_sc_mcu7t5v0__oai211_4
X_2037_ _1525_ _1526_ _1527_ _1528_ vdd vdd vss vss gf180mcu_fd_sc_mcu7t5v0__aoi21_4
XTAP_TAPCELL_ROW_37_434 vdd vss gf180mcu_fd_sc_mcu7t5v0__filltie
X_3155_ _0609_ _0590_ _0602_ _0782_ _0783_ vdd vdd vss vss gf180mcu_fd_sc_mcu7t5v0__oai31_2
XANTENNA__3691__A2 _0562_ vdd vdd vss vss gf180mcu_fd_sc_mcu7t5v0__antenna
X_3086_ _0518_ _0521_ g.g_y\[3\].g_x\[2\].t.r_h _0721_ vdd vdd vss vss gf180mcu_fd_sc_mcu7t5v0__aoi21_1
XANTENNA__3752__CLK net131 vdd vdd vss vss gf180mcu_fd_sc_mcu7t5v0__antenna
X_3988_ net42 _3988_/E g.g_y\[1\].g_x\[7\].t.r_v vdd vdd vss vss gf180mcu_fd_sc_mcu7t5v0__latq_1
X_2939_ g.g_y\[4\].g_x\[7\].t.r_v _0197_ _0580_ g.g_y\[3\].g_x\[7\].t.r_v _0581_ vdd
+ vdd vss vss gf180mcu_fd_sc_mcu7t5v0__oai211_2
XFILLER_0_9_488 vdd vdd vss vss gf180mcu_fd_sc_mcu7t5v0__fill_2
XFILLER_0_17_277 vdd vdd vss vss gf180mcu_fd_sc_mcu7t5v0__fill_2
XFILLER_0_67_166 vdd vdd vss vss gf180mcu_fd_sc_mcu7t5v0__fill_1
XANTENNA__1996__A2 _1479_ vdd vdd vss vss gf180mcu_fd_sc_mcu7t5v0__antenna
XFILLER_0_46_317 vdd vdd vss vss gf180mcu_fd_sc_mcu7t5v0__fill_1
X_3842_ g.g_y\[5\].g_x\[4\].t.w_si net119 g.g_y\[5\].g_x\[4\].t.out_sc vdd vdd vss
+ vss gf180mcu_fd_sc_mcu7t5v0__dffq_1
XTAP_TAPCELL_ROW_42_470 vdd vss gf180mcu_fd_sc_mcu7t5v0__filltie
XTAP_TAPCELL_ROW_34_415 vdd vss gf180mcu_fd_sc_mcu7t5v0__filltie
X_3911_ net61 _3911_/E g.g_y\[3\].g_x\[6\].t.r_h vdd vdd vss vss gf180mcu_fd_sc_mcu7t5v0__latq_2
X_3773_ net98 _3773_/E g.g_y\[7\].g_x\[2\].t.r_d vdd vdd vss vss gf180mcu_fd_sc_mcu7t5v0__latq_1
X_2655_ g.g_y\[5\].g_x\[3\].t.r_h _0316_ vdd vdd vss vss gf180mcu_fd_sc_mcu7t5v0__buf_1
X_2724_ _0377_ _0378_ _0379_ vdd vdd vss vss gf180mcu_fd_sc_mcu7t5v0__nand2_1
XFILLER_0_6_469 vdd vdd vss vss gf180mcu_fd_sc_mcu7t5v0__fill_2
XFILLER_0_14_236 vdd vdd vss vss gf180mcu_fd_sc_mcu7t5v0__fill_1
Xfanout127 net132 net127 vdd vdd vss vss gf180mcu_fd_sc_mcu7t5v0__clkbuf_1
Xfanout105 g.g_y\[7\].g_x\[5\].t.out_sc net105 vdd vdd vss vss gf180mcu_fd_sc_mcu7t5v0__clkbuf_1
Xfanout116 net117 net116 vdd vdd vss vss gf180mcu_fd_sc_mcu7t5v0__clkbuf_1
X_2586_ g.g_y\[4\].g_x\[5\].t.out_sc _0250_ vdd vdd vss vss gf180mcu_fd_sc_mcu7t5v0__clkinv_1
XANTENNA__3553__B _0013_ vdd vdd vss vss gf180mcu_fd_sc_mcu7t5v0__antenna
X_3207_ _0639_ _0832_ vdd vdd vss vss gf180mcu_fd_sc_mcu7t5v0__buf_1
XFILLER_0_1_174 vdd vdd vss vss gf180mcu_fd_sc_mcu7t5v0__fill_1
XFILLER_0_1_185 vdd vdd vss vss gf180mcu_fd_sc_mcu7t5v0__fillcap_4
XFILLER_0_1_196 vdd vdd vss vss gf180mcu_fd_sc_mcu7t5v0__fill_2
XFILLER_0_69_409 vdd vdd vss vss gf180mcu_fd_sc_mcu7t5v0__fill_2
X_3069_ _0688_ _0703_ _0704_ vdd vdd vss vss gf180mcu_fd_sc_mcu7t5v0__nand2_1
X_3138_ _0762_ _0764_ _0766_ _0768_ _0769_ vdd vdd vss vss gf180mcu_fd_sc_mcu7t5v0__aoi211_1
XFILLER_0_37_317 vdd vdd vss vss gf180mcu_fd_sc_mcu7t5v0__fill_2
XANTENNA__3352__A1 net43 vdd vdd vss vss gf180mcu_fd_sc_mcu7t5v0__antenna
XTAP_TAPCELL_ROW_48_518 vdd vss gf180mcu_fd_sc_mcu7t5v0__filltie
XTAP_TAPCELL_ROW_5_195 vdd vss gf180mcu_fd_sc_mcu7t5v0__filltie
XTAP_TAPCELL_ROW_56_573 vdd vss gf180mcu_fd_sc_mcu7t5v0__filltie
XFILLER_0_70_139 vdd vdd vss vss gf180mcu_fd_sc_mcu7t5v0__fill_1
XANTENNA_fanout106_I net107 vdd vdd vss vss gf180mcu_fd_sc_mcu7t5v0__antenna
XFILLER_0_59_58 vdd vdd vss vss gf180mcu_fd_sc_mcu7t5v0__fill_2
X_2440_ _1727_ _1713_ _1719_ _0112_ _0113_ vdd vdd vss vss gf180mcu_fd_sc_mcu7t5v0__oai31_4
XFILLER_0_3_439 vdd vdd vss vss gf180mcu_fd_sc_mcu7t5v0__fill_2
X_2371_ _0026_ _0035_ _0044_ _0046_ _0047_ vdd vdd vss vss gf180mcu_fd_sc_mcu7t5v0__oai31_4
X_4041_ net32 _4041_/E g.g_y\[0\].g_x\[4\].t.r_d vdd vdd vss vss gf180mcu_fd_sc_mcu7t5v0__latq_1
XTAP_TAPCELL_ROW_19_297 vdd vss gf180mcu_fd_sc_mcu7t5v0__filltie
X_3825_ net83 _3825_/E g.g_y\[5\].g_x\[7\].t.r_h vdd vdd vss vss gf180mcu_fd_sc_mcu7t5v0__latq_2
X_3756_ g.g_y\[7\].g_x\[5\].t.w_si net131 g.g_y\[7\].g_x\[5\].t.out_sc vdd vdd vss
+ vss gf180mcu_fd_sc_mcu7t5v0__dffq_1
XFILLER_0_64_2 vdd vdd vss vss gf180mcu_fd_sc_mcu7t5v0__fillcap_32
XANTENNA__3582__A1 _1567_ vdd vdd vss vss gf180mcu_fd_sc_mcu7t5v0__antenna
XANTENNA__2137__A2 _1609_ vdd vdd vss vss gf180mcu_fd_sc_mcu7t5v0__antenna
X_2707_ _0319_ _0105_ _0108_ _0365_ vdd vdd vss vss gf180mcu_fd_sc_mcu7t5v0__nand3_1
XFILLER_0_42_397 vdd vdd vss vss gf180mcu_fd_sc_mcu7t5v0__fill_1
X_2569_ g.g_y\[4\].g_x\[5\].t.r_d _0233_ vdd vdd vss vss gf180mcu_fd_sc_mcu7t5v0__buf_2
X_2638_ g.bi_l\[36\]\[0\] g.g_y\[4\].g_x\[4\].t.r_h _0299_ vdd vdd vss vss gf180mcu_fd_sc_mcu7t5v0__and2_1
XFILLER_0_6_299 vdd vdd vss vss gf180mcu_fd_sc_mcu7t5v0__fill_1
X_3687_ _0923_ _1248_ _0695_ _1249_ vdd vdd vss vss gf180mcu_fd_sc_mcu7t5v0__oai21_1
XFILLER_0_4_71 vdd vdd vss vss gf180mcu_fd_sc_mcu7t5v0__fill_1
XTAP_TAPCELL_ROW_53_554 vdd vss gf180mcu_fd_sc_mcu7t5v0__filltie
XFILLER_0_18_350 vdd vdd vss vss gf180mcu_fd_sc_mcu7t5v0__fill_1
XANTENNA__3640__C _0028_ vdd vdd vss vss gf180mcu_fd_sc_mcu7t5v0__antenna
XFILLER_0_71_448 vdd vdd vss vss gf180mcu_fd_sc_mcu7t5v0__fillcap_32
X_1871_ _1365_ _1349_ _1350_ _1357_ _1366_ vdd vdd vss vss gf180mcu_fd_sc_mcu7t5v0__oai211_4
X_1940_ _1431_ _1434_ g.g_y\[7\].g_x\[6\].t.r_h _1435_ vdd vdd vss vss gf180mcu_fd_sc_mcu7t5v0__aoi21_1
XFILLER_0_61_37 vdd vdd vss vss gf180mcu_fd_sc_mcu7t5v0__fill_2
X_3610_ _0146_ _1181_ _1182_ _1186_ g.g_y\[6\].g_x\[0\].t.w_na vdd vdd vss vss gf180mcu_fd_sc_mcu7t5v0__oai211_1
XFILLER_0_43_139 vdd vdd vss vss gf180mcu_fd_sc_mcu7t5v0__fill_1
XFILLER_0_28_158 vdd vdd vss vss gf180mcu_fd_sc_mcu7t5v0__fill_2
XFILLER_0_28_136 vdd vdd vss vss gf180mcu_fd_sc_mcu7t5v0__fill_2
XTAP_TAPCELL_ROW_16_278 vdd vss gf180mcu_fd_sc_mcu7t5v0__filltie
X_3472_ _1764_ _1766_ _1072_ _1069_ _1073_ vdd vdd vss vss gf180mcu_fd_sc_mcu7t5v0__aoi211_4
XANTENNA__2498__I _1440_ vdd vdd vss vss gf180mcu_fd_sc_mcu7t5v0__antenna
XFILLER_0_51_150 vdd vdd vss vss gf180mcu_fd_sc_mcu7t5v0__fill_1
X_2423_ _0093_ _0094_ _0095_ _0096_ vdd vdd vss vss gf180mcu_fd_sc_mcu7t5v0__oai21_1
XANTENNA__3316__A1 _0774_ vdd vdd vss vss gf180mcu_fd_sc_mcu7t5v0__antenna
XFILLER_0_3_203 vdd vdd vss vss gf180mcu_fd_sc_mcu7t5v0__fill_1
X_3541_ _0955_ _0958_ g.g_y\[1\].g_x\[0\].t.r_v _1133_ vdd vdd vss vss gf180mcu_fd_sc_mcu7t5v0__oai21_1
X_2285_ _1405_ net106 _1765_ vdd vdd vss vss gf180mcu_fd_sc_mcu7t5v0__or2_1
XANTENNA__3619__A2 _1509_ vdd vdd vss vss gf180mcu_fd_sc_mcu7t5v0__antenna
XTAP_TAPCELL_ROW_67_657 vdd vss gf180mcu_fd_sc_mcu7t5v0__filltie
X_2354_ g.bi_l\[36\]\[1\] net69 _0029_ _0030_ vdd vdd vss vss gf180mcu_fd_sc_mcu7t5v0__mux2_2
XFILLER_0_19_72 vdd vdd vss vss gf180mcu_fd_sc_mcu7t5v0__fill_2
X_4024_ net35 _4024_/E g.g_y\[1\].g_x\[0\].t.r_v vdd vdd vss vss gf180mcu_fd_sc_mcu7t5v0__latq_2
X_3808_ net89 _3808_/E g.g_y\[6\].g_x\[3\].t.r_v vdd vdd vss vss gf180mcu_fd_sc_mcu7t5v0__latq_4
XTAP_TAPCELL_ROW_50_535 vdd vss gf180mcu_fd_sc_mcu7t5v0__filltie
XFILLER_0_47_467 vdd vdd vss vss gf180mcu_fd_sc_mcu7t5v0__fill_1
X_3739_ _1127_ _1119_ _1292_ vdd vdd vss vss gf180mcu_fd_sc_mcu7t5v0__and2_1
XANTENNA__1802__A1 net8 vdd vdd vss vss gf180mcu_fd_sc_mcu7t5v0__antenna
XFILLER_0_57_209 vdd vdd vss vss gf180mcu_fd_sc_mcu7t5v0__fill_1
XFILLER_0_15_19 vdd vdd vss vss gf180mcu_fd_sc_mcu7t5v0__fill_2
XANTENNA__3836__CLK net118 vdd vdd vss vss gf180mcu_fd_sc_mcu7t5v0__antenna
XFILLER_0_61_492 vdd vdd vss vss gf180mcu_fd_sc_mcu7t5v0__fill_2
XFILLER_0_0_206 vdd vdd vss vss gf180mcu_fd_sc_mcu7t5v0__fill_2
XANTENNA__3986__CLK net124 vdd vdd vss vss gf180mcu_fd_sc_mcu7t5v0__antenna
X_2070_ net102 _1445_ _1560_ vdd vdd vss vss gf180mcu_fd_sc_mcu7t5v0__nand2_1
XFILLER_0_56_37 vdd vdd vss vss gf180mcu_fd_sc_mcu7t5v0__fill_2
XFILLER_0_72_36 vdd vdd vss vss gf180mcu_fd_sc_mcu7t5v0__fillcap_32
XTAP_TAPCELL_ROW_64_638 vdd vss gf180mcu_fd_sc_mcu7t5v0__filltie
XFILLER_0_56_231 vdd vdd vss vss gf180mcu_fd_sc_mcu7t5v0__fill_2
X_2972_ _0581_ _0612_ _0613_ _0614_ vdd vdd vss vss gf180mcu_fd_sc_mcu7t5v0__aoi21_1
X_1854_ net92 g.bi_l\[54\]\[1\] g.g_y\[6\].g_x\[6\].t.r_d _1349_ vdd vdd vss vss gf180mcu_fd_sc_mcu7t5v0__mux2_2
XFILLER_0_71_212 vdd vdd vss vss gf180mcu_fd_sc_mcu7t5v0__fill_2
XTAP_TAPCELL_ROW_72_693 vdd vss gf180mcu_fd_sc_mcu7t5v0__filltie
X_1923_ net108 g.bi_l\[63\]\[1\] g.g_y\[7\].g_x\[7\].t.r_d _1418_ vdd vdd vss vss
+ gf180mcu_fd_sc_mcu7t5v0__mux2_2
XFILLER_0_8_339 vdd vdd vss vss gf180mcu_fd_sc_mcu7t5v0__fill_1
X_2406_ _0075_ _0077_ _0078_ _0079_ vdd vdd vss vss gf180mcu_fd_sc_mcu7t5v0__oai21_2
X_3524_ _1699_ _1685_ _1692_ _1118_ _1119_ vdd vdd vss vss gf180mcu_fd_sc_mcu7t5v0__oai31_4
X_3455_ _1745_ _1057_ _1058_ _1059_ vdd vdd vss vss gf180mcu_fd_sc_mcu7t5v0__nor3_1
X_3386_ g.g_y\[1\].g_x\[5\].t.r_d _0998_ vdd vdd vss vss gf180mcu_fd_sc_mcu7t5v0__buf_1
X_2337_ _1507_ _0010_ _0012_ _0014_ g.g_y\[6\].g_x\[6\].t.w_si vdd vdd vss vss gf180mcu_fd_sc_mcu7t5v0__oai22_1
X_2268_ _1359_ _1746_ _1750_ g.g_y\[7\].g_x\[0\].t.w_si vdd vdd vss vss gf180mcu_fd_sc_mcu7t5v0__aoi21_1
X_2199_ g.g_y\[0\].g_x\[1\].t.r_v _1684_ vdd vdd vss vss gf180mcu_fd_sc_mcu7t5v0__clkinv_3
X_4007_ net38 _4007_/E g.g_y\[1\].g_x\[3\].t.r_d vdd vdd vss vss gf180mcu_fd_sc_mcu7t5v0__latq_2
XFILLER_0_47_275 vdd vdd vss vss gf180mcu_fd_sc_mcu7t5v0__fill_2
XFILLER_0_1_72 vdd vdd vss vss gf180mcu_fd_sc_mcu7t5v0__fillcap_64
XTAP_TAPCELL_ROW_10_229 vdd vss gf180mcu_fd_sc_mcu7t5v0__filltie
XFILLER_0_15_150 vdd vdd vss vss gf180mcu_fd_sc_mcu7t5v0__fill_2
XFILLER_0_30_186 vdd vdd vss vss gf180mcu_fd_sc_mcu7t5v0__fill_1
XANTENNA__2267__A1 _1747_ vdd vdd vss vss gf180mcu_fd_sc_mcu7t5v0__antenna
XTAP_TAPCELL_ROW_26_351 vdd vss gf180mcu_fd_sc_mcu7t5v0__filltie
XFILLER_0_53_245 vdd vdd vss vss gf180mcu_fd_sc_mcu7t5v0__fill_2
XFILLER_0_53_212 vdd vdd vss vss gf180mcu_fd_sc_mcu7t5v0__fill_2
X_3240_ _0839_ _0857_ _0863_ _0444_ _0864_ vdd vdd vss vss gf180mcu_fd_sc_mcu7t5v0__oai211_2
X_2053_ _1538_ _1543_ g.g_y\[7\].g_x\[4\].t.r_h _1544_ vdd vdd vss vss gf180mcu_fd_sc_mcu7t5v0__mux2_2
X_2122_ _1607_ _1609_ _1601_ _1610_ vdd vdd vss vss gf180mcu_fd_sc_mcu7t5v0__mux2_2
X_3171_ g.g_y\[1\].g_x\[5\].t.r_h _0798_ vdd vdd vss vss gf180mcu_fd_sc_mcu7t5v0__clkinv_3
XFILLER_0_29_286 vdd vdd vss vss gf180mcu_fd_sc_mcu7t5v0__fill_2
XFILLER_0_29_264 vdd vdd vss vss gf180mcu_fd_sc_mcu7t5v0__fill_1
X_2955_ _0596_ _0597_ vdd vdd vss vss gf180mcu_fd_sc_mcu7t5v0__clkbuf_2
X_1837_ _1313_ _1315_ _1317_ _1325_ _1332_ vdd vdd vss vss gf180mcu_fd_sc_mcu7t5v0__oai211_4
X_1906_ _1393_ _1388_ _1400_ _1376_ _1401_ vdd vdd vss vss gf180mcu_fd_sc_mcu7t5v0__aoi211_4
X_3507_ _1090_ _1092_ _1094_ _1468_ _1104_ vdd vdd vss vss gf180mcu_fd_sc_mcu7t5v0__aoi211_1
X_2886_ _1565_ _0532_ vdd vdd vss vss gf180mcu_fd_sc_mcu7t5v0__buf_2
XTAP_TAPCELL_ROW_32_398 vdd vss gf180mcu_fd_sc_mcu7t5v0__filltie
X_3438_ _1684_ _1044_ vdd vdd vss vss gf180mcu_fd_sc_mcu7t5v0__clkbuf_2
X_3369_ _0813_ _0816_ g.g_y\[1\].g_x\[6\].t.r_h _0985_ vdd vdd vss vss gf180mcu_fd_sc_mcu7t5v0__aoi21_2
XFILLER_0_67_348 vdd vdd vss vss gf180mcu_fd_sc_mcu7t5v0__fill_2
XFILLER_0_63_543 vdd vdd vss vss gf180mcu_fd_sc_mcu7t5v0__fill_2
XFILLER_0_63_532 vdd vdd vss vss gf180mcu_fd_sc_mcu7t5v0__fill_2
XFILLER_0_63_510 vdd vdd vss vss gf180mcu_fd_sc_mcu7t5v0__fill_1
XFILLER_0_35_212 vdd vdd vss vss gf180mcu_fd_sc_mcu7t5v0__fill_2
XTAP_TAPCELL_ROW_23_332 vdd vss gf180mcu_fd_sc_mcu7t5v0__filltie
XANTENNA__2972__A2 _0612_ vdd vdd vss vss gf180mcu_fd_sc_mcu7t5v0__antenna
XFILLER_0_50_226 vdd vdd vss vss gf180mcu_fd_sc_mcu7t5v0__fill_1
Xoutput20 net20 out[2] vdd vdd vss vss gf180mcu_fd_sc_mcu7t5v0__buf_8
XFILLER_0_37_17 vdd vdd vss vss gf180mcu_fd_sc_mcu7t5v0__fill_1
XFILLER_0_66_381 vdd vdd vss vss gf180mcu_fd_sc_mcu7t5v0__fill_2
X_2671_ _0328_ _0329_ _0330_ vdd vdd vss vss gf180mcu_fd_sc_mcu7t5v0__nand2_1
X_2740_ _0392_ _0393_ vdd vdd vss vss gf180mcu_fd_sc_mcu7t5v0__buf_2
XANTENNA__3376__B _0928_ vdd vdd vss vss gf180mcu_fd_sc_mcu7t5v0__antenna
XANTENNA__3140__A2 _0532_ vdd vdd vss vss gf180mcu_fd_sc_mcu7t5v0__antenna
X_3223_ net38 g.bi_l\[11\]\[1\] g.g_y\[1\].g_x\[3\].t.r_d _0847_ vdd vdd vss vss gf180mcu_fd_sc_mcu7t5v0__mux2_2
X_2105_ _1569_ _1593_ vdd vdd vss vss gf180mcu_fd_sc_mcu7t5v0__clkbuf_2
X_2036_ g.bi_l\[4\]\[0\] g.g_y\[0\].g_x\[4\].t.r_v _1527_ vdd vdd vss vss gf180mcu_fd_sc_mcu7t5v0__and2_1
XTAP_TAPCELL_ROW_37_435 vdd vss gf180mcu_fd_sc_mcu7t5v0__filltie
X_3154_ _0609_ _0603_ _0782_ vdd vdd vss vss gf180mcu_fd_sc_mcu7t5v0__nand2_1
X_3085_ _0520_ _0505_ _0513_ _0719_ _0720_ vdd vdd vss vss gf180mcu_fd_sc_mcu7t5v0__oai31_2
XFILLER_0_9_401 vdd vdd vss vss gf180mcu_fd_sc_mcu7t5v0__fill_1
XFILLER_0_64_307 vdd vdd vss vss gf180mcu_fd_sc_mcu7t5v0__fill_2
XFILLER_0_57_370 vdd vdd vss vss gf180mcu_fd_sc_mcu7t5v0__fill_2
XFILLER_0_45_543 vdd vdd vss vss gf180mcu_fd_sc_mcu7t5v0__fill_2
X_2938_ g.g_y\[4\].g_x\[7\].t.r_v _0200_ _0204_ _0580_ vdd vdd vss vss gf180mcu_fd_sc_mcu7t5v0__nand3_2
X_3987_ net43 _3987_/E g.g_y\[1\].g_x\[7\].t.r_d vdd vdd vss vss gf180mcu_fd_sc_mcu7t5v0__latq_2
XANTENNA__2651__A1 _0285_ vdd vdd vss vss gf180mcu_fd_sc_mcu7t5v0__antenna
XFILLER_0_17_256 vdd vdd vss vss gf180mcu_fd_sc_mcu7t5v0__fill_2
XFILLER_0_60_535 vdd vdd vss vss gf180mcu_fd_sc_mcu7t5v0__fill_2
X_2869_ _0496_ _0505_ _0513_ _0515_ _0516_ vdd vdd vss vss gf180mcu_fd_sc_mcu7t5v0__oai31_2
XFILLER_0_13_462 vdd vdd vss vss gf180mcu_fd_sc_mcu7t5v0__fill_1
XFILLER_0_67_101 vdd vdd vss vss gf180mcu_fd_sc_mcu7t5v0__fill_2
XFILLER_0_36_521 vdd vdd vss vss gf180mcu_fd_sc_mcu7t5v0__fill_2
XFILLER_0_36_543 vdd vdd vss vss gf180mcu_fd_sc_mcu7t5v0__fill_2
XFILLER_0_64_37 vdd vdd vss vss gf180mcu_fd_sc_mcu7t5v0__fillcap_16
X_3772_ g.g_y\[7\].g_x\[2\].t.w_si net127 g.g_y\[7\].g_x\[2\].t.out_sc vdd vdd vss
+ vss gf180mcu_fd_sc_mcu7t5v0__dffq_1
X_3841_ g.g_y\[5\].g_x\[4\].t.out_sc _3841_/E g.g_y\[5\].g_x\[4\].t.r_h vdd vdd vss
+ vss gf180mcu_fd_sc_mcu7t5v0__latq_2
XTAP_TAPCELL_ROW_42_471 vdd vss gf180mcu_fd_sc_mcu7t5v0__filltie
X_2723_ _0174_ _0182_ _0199_ _0203_ _0378_ vdd vdd vss vss gf180mcu_fd_sc_mcu7t5v0__oai211_1
X_3910_ g.g_y\[3\].g_x\[7\].t.w_na _3910_/E _3910_/RN g.bi_l\[31\]\[1\] vdd vdd vss
+ vss gf180mcu_fd_sc_mcu7t5v0__latrnq_1
XANTENNA__2936__A2 _0274_ vdd vdd vss vss gf180mcu_fd_sc_mcu7t5v0__antenna
XFILLER_0_54_395 vdd vdd vss vss gf180mcu_fd_sc_mcu7t5v0__fill_2
X_2654_ _0283_ _0313_ _0314_ _0315_ vdd vdd vss vss gf180mcu_fd_sc_mcu7t5v0__aoi21_1
X_2585_ _0245_ _0247_ _0248_ _0249_ vdd vdd vss vss gf180mcu_fd_sc_mcu7t5v0__mux2_2
XFILLER_0_1_142 vdd vdd vss vss gf180mcu_fd_sc_mcu7t5v0__fillcap_32
XFILLER_0_10_454 vdd vdd vss vss gf180mcu_fd_sc_mcu7t5v0__fill_1
Xfanout106 net107 net106 vdd vdd vss vss gf180mcu_fd_sc_mcu7t5v0__clkbuf_1
Xfanout128 net129 net128 vdd vdd vss vss gf180mcu_fd_sc_mcu7t5v0__clkbuf_1
Xfanout117 net120 net117 vdd vdd vss vss gf180mcu_fd_sc_mcu7t5v0__buf_1
X_3206_ _0653_ _0652_ _0660_ _0640_ _0831_ vdd vdd vss vss gf180mcu_fd_sc_mcu7t5v0__oai211_1
XFILLER_0_10_487 vdd vdd vss vss gf180mcu_fd_sc_mcu7t5v0__fill_2
X_3137_ _0732_ _0768_ vdd vdd vss vss gf180mcu_fd_sc_mcu7t5v0__clkinv_1
X_2019_ _1491_ _1510_ vdd vdd vss vss gf180mcu_fd_sc_mcu7t5v0__clkbuf_2
X_3068_ net48 _0703_ vdd vdd vss vss gf180mcu_fd_sc_mcu7t5v0__clkinv_1
XFILLER_0_5_492 vdd vdd vss vss gf180mcu_fd_sc_mcu7t5v0__fillcap_32
XANTENNA__3352__A2 _1747_ vdd vdd vss vss gf180mcu_fd_sc_mcu7t5v0__antenna
XTAP_TAPCELL_ROW_56_574 vdd vss gf180mcu_fd_sc_mcu7t5v0__filltie
XTAP_TAPCELL_ROW_48_519 vdd vss gf180mcu_fd_sc_mcu7t5v0__filltie
XTAP_TAPCELL_ROW_5_196 vdd vss gf180mcu_fd_sc_mcu7t5v0__filltie
XFILLER_0_51_376 vdd vdd vss vss gf180mcu_fd_sc_mcu7t5v0__fill_2
XFILLER_0_36_384 vdd vdd vss vss gf180mcu_fd_sc_mcu7t5v0__fill_1
X_2370_ _0026_ _0045_ _0046_ vdd vdd vss vss gf180mcu_fd_sc_mcu7t5v0__nand2_1
X_4040_ g.g_y\[0\].g_x\[4\].t.w_si net130 g.g_y\[0\].g_x\[4\].t.out_sc vdd vdd vss
+ vss gf180mcu_fd_sc_mcu7t5v0__dffq_1
XTAP_TAPCELL_ROW_19_298 vdd vss gf180mcu_fd_sc_mcu7t5v0__filltie
XANTENNA__2854__A1 _0498_ vdd vdd vss vss gf180mcu_fd_sc_mcu7t5v0__antenna
X_3755_ net104 _3755_/E g.g_y\[7\].g_x\[5\].t.r_h vdd vdd vss vss gf180mcu_fd_sc_mcu7t5v0__latq_2
XANTENNA__3582__A2 _1592_ vdd vdd vss vss gf180mcu_fd_sc_mcu7t5v0__antenna
X_3824_ g.g_y\[6\].g_x\[0\].t.w_na _3824_/E _3824_/RN g.bi_l\[48\]\[1\] vdd vdd vss
+ vss gf180mcu_fd_sc_mcu7t5v0__latrnq_1
X_2706_ g.g_y\[5\].g_x\[1\].t.r_h _0364_ vdd vdd vss vss gf180mcu_fd_sc_mcu7t5v0__clkbuf_2
X_3686_ _0878_ _0871_ _1248_ vdd vdd vss vss gf180mcu_fd_sc_mcu7t5v0__and2_1
X_2499_ _0163_ net16 _0165_ _0161_ _0168_ vdd vdd vss vss gf180mcu_fd_sc_mcu7t5v0__aoi211_1
X_2568_ _0231_ _0232_ vdd vdd vss vss gf180mcu_fd_sc_mcu7t5v0__clkbuf_2
X_2637_ _0295_ _0296_ _0297_ _0298_ vdd vdd vss vss gf180mcu_fd_sc_mcu7t5v0__oai21_1
XPHY_EDGE_ROW_12_Right_12 vdd vss gf180mcu_fd_sc_mcu7t5v0__endcap
XFILLER_0_65_80 vdd vdd vss vss gf180mcu_fd_sc_mcu7t5v0__fill_2
XPHY_EDGE_ROW_21_Right_21 vdd vss gf180mcu_fd_sc_mcu7t5v0__endcap
XANTENNA__2073__A2 _1528_ vdd vdd vss vss gf180mcu_fd_sc_mcu7t5v0__antenna
XTAP_TAPCELL_ROW_53_555 vdd vss gf180mcu_fd_sc_mcu7t5v0__filltie
XFILLER_0_52_107 vdd vdd vss vss gf180mcu_fd_sc_mcu7t5v0__fill_2
XFILLER_0_45_192 vdd vdd vss vss gf180mcu_fd_sc_mcu7t5v0__fill_2
XPHY_EDGE_ROW_30_Right_30 vdd vss gf180mcu_fd_sc_mcu7t5v0__endcap
XFILLER_0_18_384 vdd vdd vss vss gf180mcu_fd_sc_mcu7t5v0__fill_1
XFILLER_0_61_27 vdd vdd vss vss gf180mcu_fd_sc_mcu7t5v0__fillcap_4
XFILLER_0_61_16 vdd vdd vss vss gf180mcu_fd_sc_mcu7t5v0__fillcap_8
XANTENNA__2836__A1 _0481_ vdd vdd vss vss gf180mcu_fd_sc_mcu7t5v0__antenna
XFILLER_0_71_416 vdd vdd vss vss gf180mcu_fd_sc_mcu7t5v0__fillcap_4
X_1870_ _1348_ _1365_ vdd vdd vss vss gf180mcu_fd_sc_mcu7t5v0__clkbuf_2
X_3540_ g.g_y\[0\].g_x\[0\].t.r_v _1132_ vdd vdd vss vss gf180mcu_fd_sc_mcu7t5v0__buf_1
XTAP_TAPCELL_ROW_16_279 vdd vss gf180mcu_fd_sc_mcu7t5v0__filltie
X_3471_ _1431_ _1434_ g.g_y\[7\].g_x\[6\].t.r_v _1072_ vdd vdd vss vss gf180mcu_fd_sc_mcu7t5v0__aoi21_2
X_2422_ g.bi_l\[41\]\[0\] g.g_y\[5\].g_x\[1\].t.r_h _0095_ vdd vdd vss vss gf180mcu_fd_sc_mcu7t5v0__or2_1
X_2353_ g.g_y\[4\].g_x\[4\].t.r_d _0029_ vdd vdd vss vss gf180mcu_fd_sc_mcu7t5v0__buf_1
XFILLER_0_12_527 vdd vdd vss vss gf180mcu_fd_sc_mcu7t5v0__fillcap_8
XTAP_TAPCELL_ROW_67_658 vdd vss gf180mcu_fd_sc_mcu7t5v0__filltie
X_2284_ g.g_y\[7\].g_x\[6\].t.r_v _1764_ vdd vdd vss vss gf180mcu_fd_sc_mcu7t5v0__clkbuf_2
X_4023_ net35 _4023_/E g.g_y\[1\].g_x\[0\].t.r_d vdd vdd vss vss gf180mcu_fd_sc_mcu7t5v0__latq_1
XFILLER_0_59_251 vdd vdd vss vss gf180mcu_fd_sc_mcu7t5v0__fill_2
XANTENNA__2463__B _0132_ vdd vdd vss vss gf180mcu_fd_sc_mcu7t5v0__antenna
XFILLER_0_35_72 vdd vdd vss vss gf180mcu_fd_sc_mcu7t5v0__fill_2
XFILLER_0_34_107 vdd vdd vss vss gf180mcu_fd_sc_mcu7t5v0__fill_2
XANTENNA__1802__A2 net7 vdd vdd vss vss gf180mcu_fd_sc_mcu7t5v0__antenna
X_1999_ g.g_y\[6\].g_x\[5\].t.r_d _1490_ vdd vdd vss vss gf180mcu_fd_sc_mcu7t5v0__buf_2
X_3807_ net89 _3807_/E g.g_y\[6\].g_x\[3\].t.r_d vdd vdd vss vss gf180mcu_fd_sc_mcu7t5v0__latq_1
XFILLER_0_42_140 vdd vdd vss vss gf180mcu_fd_sc_mcu7t5v0__fill_1
X_3738_ _1638_ _1287_ _1290_ _1291_ g.g_y\[0\].g_x\[2\].t.w_na vdd vdd vss vss gf180mcu_fd_sc_mcu7t5v0__oai211_1
XANTENNA__3555__A2 net2 vdd vdd vss vss gf180mcu_fd_sc_mcu7t5v0__antenna
X_3669_ _0616_ _0618_ _0765_ _1234_ vdd vdd vss vss gf180mcu_fd_sc_mcu7t5v0__aoi21_1
XFILLER_0_15_354 vdd vdd vss vss gf180mcu_fd_sc_mcu7t5v0__fill_1
XANTENNA__1869__A2 _1346_ vdd vdd vss vss gf180mcu_fd_sc_mcu7t5v0__antenna
XANTENNA__3307__A2 _0887_ vdd vdd vss vss gf180mcu_fd_sc_mcu7t5v0__antenna
XANTENNA__3491__A1 _1441_ vdd vdd vss vss gf180mcu_fd_sc_mcu7t5v0__antenna
XFILLER_0_38_457 vdd vdd vss vss gf180mcu_fd_sc_mcu7t5v0__fill_1
XANTENNA__3546__A2 _1134_ vdd vdd vss vss gf180mcu_fd_sc_mcu7t5v0__antenna
XFILLER_0_0_218 vdd vdd vss vss gf180mcu_fd_sc_mcu7t5v0__fill_2
XANTENNA__2820__C _0028_ vdd vdd vss vss gf180mcu_fd_sc_mcu7t5v0__antenna
XTAP_TAPCELL_ROW_72_694 vdd vss gf180mcu_fd_sc_mcu7t5v0__filltie
X_1922_ g.g_y\[7\].g_x\[7\].t.r_h _1417_ vdd vdd vss vss gf180mcu_fd_sc_mcu7t5v0__inv_1
XTAP_TAPCELL_ROW_64_639 vdd vss gf180mcu_fd_sc_mcu7t5v0__filltie
X_2971_ _0177_ _0613_ vdd vdd vss vss gf180mcu_fd_sc_mcu7t5v0__clkinv_1
XTAP_TAPCELL_ROW_29_371 vdd vss gf180mcu_fd_sc_mcu7t5v0__filltie
X_1853_ g.g_y\[6\].g_x\[6\].t.r_h _1348_ vdd vdd vss vss gf180mcu_fd_sc_mcu7t5v0__clkinv_2
X_3523_ _1693_ _1699_ _1118_ vdd vdd vss vss gf180mcu_fd_sc_mcu7t5v0__nand2_1
XFILLER_0_24_173 vdd vdd vss vss gf180mcu_fd_sc_mcu7t5v0__fill_2
XFILLER_0_12_313 vdd vdd vss vss gf180mcu_fd_sc_mcu7t5v0__fill_2
X_2336_ _1763_ _0006_ _0008_ _0013_ _0014_ vdd vdd vss vss gf180mcu_fd_sc_mcu7t5v0__oai31_1
X_2405_ _0075_ _1659_ _1662_ _0078_ vdd vdd vss vss gf180mcu_fd_sc_mcu7t5v0__nand3_1
X_3385_ _0993_ _0996_ _0997_ g.g_y\[1\].g_x\[6\].t.w_si vdd vdd vss vss gf180mcu_fd_sc_mcu7t5v0__oai21_1
X_3454_ _0977_ _0941_ _0954_ _0957_ _1058_ vdd vdd vss vss gf180mcu_fd_sc_mcu7t5v0__aoi211_1
XANTENNA__2276__A2 _1757_ vdd vdd vss vss gf180mcu_fd_sc_mcu7t5v0__antenna
XFILLER_0_67_519 vdd vdd vss vss gf180mcu_fd_sc_mcu7t5v0__fillcap_16
X_2267_ _1747_ _1748_ _1749_ _1750_ vdd vdd vss vss gf180mcu_fd_sc_mcu7t5v0__nor3_1
X_2198_ _1680_ _1681_ _1682_ _1683_ vdd vdd vss vss gf180mcu_fd_sc_mcu7t5v0__aoi21_4
X_4006_ g.g_y\[1\].g_x\[3\].t.w_si net125 g.g_y\[1\].g_x\[3\].t.out_sc vdd vdd vss
+ vss gf180mcu_fd_sc_mcu7t5v0__dffq_1
XFILLER_0_28_490 vdd vdd vss vss gf180mcu_fd_sc_mcu7t5v0__fill_1
XFILLER_0_50_408 vdd vdd vss vss gf180mcu_fd_sc_mcu7t5v0__fill_1
XANTENNA__3464__A1 _1327_ vdd vdd vss vss gf180mcu_fd_sc_mcu7t5v0__antenna
XFILLER_0_38_243 vdd vdd vss vss gf180mcu_fd_sc_mcu7t5v0__fill_2
XTAP_TAPCELL_ROW_26_352 vdd vss gf180mcu_fd_sc_mcu7t5v0__filltie