* NGSPICE file created from totp.ext - technology: gf180mcuD

* Black-box entry subcircuit for gf180mcu_fd_sc_mcu7t5v0__mux2_2 abstract view
.subckt gf180mcu_fd_sc_mcu7t5v0__mux2_2 I0 I1 S Z VDD VNW VPW VSS
.ends

* Black-box entry subcircuit for gf180mcu_fd_sc_mcu7t5v0__clkbuf_1 abstract view
.subckt gf180mcu_fd_sc_mcu7t5v0__clkbuf_1 I Z VDD VNW VPW VSS
.ends

* Black-box entry subcircuit for gf180mcu_fd_sc_mcu7t5v0__buf_1 abstract view
.subckt gf180mcu_fd_sc_mcu7t5v0__buf_1 I Z VDD VNW VPW VSS
.ends

* Black-box entry subcircuit for gf180mcu_fd_sc_mcu7t5v0__fillcap_4 abstract view
.subckt gf180mcu_fd_sc_mcu7t5v0__fillcap_4 VDD VNW VPW VSS
.ends

* Black-box entry subcircuit for gf180mcu_fd_sc_mcu7t5v0__filltie abstract view
.subckt gf180mcu_fd_sc_mcu7t5v0__filltie VDD VSS
.ends

* Black-box entry subcircuit for gf180mcu_fd_sc_mcu7t5v0__antenna abstract view
.subckt gf180mcu_fd_sc_mcu7t5v0__antenna I VDD VNW VPW VSS
.ends

* Black-box entry subcircuit for gf180mcu_fd_sc_mcu7t5v0__fillcap_8 abstract view
.subckt gf180mcu_fd_sc_mcu7t5v0__fillcap_8 VDD VNW VPW VSS
.ends

* Black-box entry subcircuit for gf180mcu_fd_sc_mcu7t5v0__fill_1 abstract view
.subckt gf180mcu_fd_sc_mcu7t5v0__fill_1 VDD VNW VPW VSS
.ends

* Black-box entry subcircuit for gf180mcu_fd_sc_mcu7t5v0__fillcap_16 abstract view
.subckt gf180mcu_fd_sc_mcu7t5v0__fillcap_16 VDD VNW VPW VSS
.ends

* Black-box entry subcircuit for gf180mcu_fd_sc_mcu7t5v0__fill_2 abstract view
.subckt gf180mcu_fd_sc_mcu7t5v0__fill_2 VDD VNW VPW VSS
.ends

* Black-box entry subcircuit for gf180mcu_fd_sc_mcu7t5v0__dffq_1 abstract view
.subckt gf180mcu_fd_sc_mcu7t5v0__dffq_1 D CLK Q VDD VNW VPW VSS
.ends

* Black-box entry subcircuit for gf180mcu_fd_sc_mcu7t5v0__dlyb_1 abstract view
.subckt gf180mcu_fd_sc_mcu7t5v0__dlyb_1 I Z VDD VNW VPW VSS
.ends

* Black-box entry subcircuit for gf180mcu_fd_sc_mcu7t5v0__fillcap_64 abstract view
.subckt gf180mcu_fd_sc_mcu7t5v0__fillcap_64 VDD VNW VPW VSS
.ends

* Black-box entry subcircuit for gf180mcu_fd_sc_mcu7t5v0__nand2_1 abstract view
.subckt gf180mcu_fd_sc_mcu7t5v0__nand2_1 A1 A2 ZN VDD VNW VPW VSS
.ends

* Black-box entry subcircuit for gf180mcu_fd_sc_mcu7t5v0__oai21_1 abstract view
.subckt gf180mcu_fd_sc_mcu7t5v0__oai21_1 A1 A2 B ZN VDD VNW VPW VSS
.ends

* Black-box entry subcircuit for gf180mcu_fd_sc_mcu7t5v0__dlyc_1 abstract view
.subckt gf180mcu_fd_sc_mcu7t5v0__dlyc_1 I Z VDD VNW VPW VSS
.ends

* Black-box entry subcircuit for gf180mcu_fd_sc_mcu7t5v0__oai221_1 abstract view
.subckt gf180mcu_fd_sc_mcu7t5v0__oai221_1 A1 A2 B1 B2 C ZN VDD VNW VPW VSS
.ends

* Black-box entry subcircuit for gf180mcu_fd_sc_mcu7t5v0__nand3_1 abstract view
.subckt gf180mcu_fd_sc_mcu7t5v0__nand3_1 A1 A2 A3 ZN VDD VNW VPW VSS
.ends

* Black-box entry subcircuit for gf180mcu_fd_sc_mcu7t5v0__clkbuf_8 abstract view
.subckt gf180mcu_fd_sc_mcu7t5v0__clkbuf_8 I Z VDD VNW VPW VSS
.ends

* Black-box entry subcircuit for gf180mcu_fd_sc_mcu7t5v0__nor2_1 abstract view
.subckt gf180mcu_fd_sc_mcu7t5v0__nor2_1 A1 A2 ZN VDD VNW VPW VSS
.ends

* Black-box entry subcircuit for gf180mcu_fd_sc_mcu7t5v0__clkinv_1 abstract view
.subckt gf180mcu_fd_sc_mcu7t5v0__clkinv_1 I ZN VDD VNW VPW VSS
.ends

* Black-box entry subcircuit for gf180mcu_fd_sc_mcu7t5v0__endcap abstract view
.subckt gf180mcu_fd_sc_mcu7t5v0__endcap VDD VSS
.ends

* Black-box entry subcircuit for gf180mcu_fd_sc_mcu7t5v0__fillcap_32 abstract view
.subckt gf180mcu_fd_sc_mcu7t5v0__fillcap_32 VDD VNW VPW VSS
.ends

* Black-box entry subcircuit for gf180mcu_fd_sc_mcu7t5v0__clkbuf_2 abstract view
.subckt gf180mcu_fd_sc_mcu7t5v0__clkbuf_2 I Z VDD VNW VPW VSS
.ends

* Black-box entry subcircuit for gf180mcu_fd_sc_mcu7t5v0__nand4_1 abstract view
.subckt gf180mcu_fd_sc_mcu7t5v0__nand4_1 A1 A2 A3 A4 ZN VDD VNW VPW VSS
.ends

* Black-box entry subcircuit for gf180mcu_fd_sc_mcu7t5v0__oai22_1 abstract view
.subckt gf180mcu_fd_sc_mcu7t5v0__oai22_1 A1 A2 B1 B2 ZN VDD VNW VPW VSS
.ends

* Black-box entry subcircuit for gf180mcu_fd_sc_mcu7t5v0__aoi221_4 abstract view
.subckt gf180mcu_fd_sc_mcu7t5v0__aoi221_4 A1 A2 B1 B2 C ZN VDD VNW VPW VSS
.ends

* Black-box entry subcircuit for gf180mcu_fd_sc_mcu7t5v0__and4_1 abstract view
.subckt gf180mcu_fd_sc_mcu7t5v0__and4_1 A1 A2 A3 A4 Z VDD VNW VPW VSS
.ends

* Black-box entry subcircuit for gf180mcu_fd_sc_mcu7t5v0__inv_1 abstract view
.subckt gf180mcu_fd_sc_mcu7t5v0__inv_1 I ZN VDD VNW VPW VSS
.ends

* Black-box entry subcircuit for gf180mcu_fd_sc_mcu7t5v0__clkinv_2 abstract view
.subckt gf180mcu_fd_sc_mcu7t5v0__clkinv_2 I ZN VDD VNW VPW VSS
.ends

* Black-box entry subcircuit for gf180mcu_fd_sc_mcu7t5v0__nor3_4 abstract view
.subckt gf180mcu_fd_sc_mcu7t5v0__nor3_4 A1 A2 A3 ZN VDD VNW VPW VSS
.ends

* Black-box entry subcircuit for gf180mcu_fd_sc_mcu7t5v0__clkbuf_16 abstract view
.subckt gf180mcu_fd_sc_mcu7t5v0__clkbuf_16 I Z VDD VNW VPW VSS
.ends

* Black-box entry subcircuit for gf180mcu_fd_sc_mcu7t5v0__buf_8 abstract view
.subckt gf180mcu_fd_sc_mcu7t5v0__buf_8 I Z VDD VNW VPW VSS
.ends

* Black-box entry subcircuit for gf180mcu_fd_sc_mcu7t5v0__oai221_4 abstract view
.subckt gf180mcu_fd_sc_mcu7t5v0__oai221_4 A1 A2 B1 B2 C ZN VDD VNW VPW VSS
.ends

* Black-box entry subcircuit for gf180mcu_fd_sc_mcu7t5v0__buf_2 abstract view
.subckt gf180mcu_fd_sc_mcu7t5v0__buf_2 I Z VDD VNW VPW VSS
.ends

* Black-box entry subcircuit for gf180mcu_fd_sc_mcu7t5v0__aoi21_1 abstract view
.subckt gf180mcu_fd_sc_mcu7t5v0__aoi21_1 A1 A2 B ZN VDD VNW VPW VSS
.ends

* Black-box entry subcircuit for gf180mcu_fd_sc_mcu7t5v0__or2_1 abstract view
.subckt gf180mcu_fd_sc_mcu7t5v0__or2_1 A1 A2 Z VDD VNW VPW VSS
.ends

* Black-box entry subcircuit for gf180mcu_fd_sc_mcu7t5v0__xor3_1 abstract view
.subckt gf180mcu_fd_sc_mcu7t5v0__xor3_1 A1 A2 A3 Z VDD VNW VPW VSS
.ends

* Black-box entry subcircuit for gf180mcu_fd_sc_mcu7t5v0__nor4_1 abstract view
.subckt gf180mcu_fd_sc_mcu7t5v0__nor4_1 A1 A2 A3 A4 ZN VDD VNW VPW VSS
.ends

* Black-box entry subcircuit for gf180mcu_fd_sc_mcu7t5v0__aoi22_1 abstract view
.subckt gf180mcu_fd_sc_mcu7t5v0__aoi22_1 A1 A2 B1 B2 ZN VDD VNW VPW VSS
.ends

* Black-box entry subcircuit for gf180mcu_fd_sc_mcu7t5v0__nor3_1 abstract view
.subckt gf180mcu_fd_sc_mcu7t5v0__nor3_1 A1 A2 A3 ZN VDD VNW VPW VSS
.ends

* Black-box entry subcircuit for gf180mcu_fd_sc_mcu7t5v0__aoi22_4 abstract view
.subckt gf180mcu_fd_sc_mcu7t5v0__aoi22_4 A1 A2 B1 B2 ZN VDD VNW VPW VSS
.ends

* Black-box entry subcircuit for gf180mcu_fd_sc_mcu7t5v0__oai21_2 abstract view
.subckt gf180mcu_fd_sc_mcu7t5v0__oai21_2 A1 A2 B ZN VDD VNW VPW VSS
.ends

* Black-box entry subcircuit for gf180mcu_fd_sc_mcu7t5v0__oai22_4 abstract view
.subckt gf180mcu_fd_sc_mcu7t5v0__oai22_4 A1 A2 B1 B2 ZN VDD VNW VPW VSS
.ends

* Black-box entry subcircuit for gf180mcu_fd_sc_mcu7t5v0__nand2_2 abstract view
.subckt gf180mcu_fd_sc_mcu7t5v0__nand2_2 A1 A2 ZN VDD VNW VPW VSS
.ends

* Black-box entry subcircuit for gf180mcu_fd_sc_mcu7t5v0__and2_1 abstract view
.subckt gf180mcu_fd_sc_mcu7t5v0__and2_1 A1 A2 Z VDD VNW VPW VSS
.ends

* Black-box entry subcircuit for gf180mcu_fd_sc_mcu7t5v0__oai211_2 abstract view
.subckt gf180mcu_fd_sc_mcu7t5v0__oai211_2 A1 A2 B C ZN VDD VNW VPW VSS
.ends

* Black-box entry subcircuit for gf180mcu_fd_sc_mcu7t5v0__oai31_1 abstract view
.subckt gf180mcu_fd_sc_mcu7t5v0__oai31_1 A1 A2 A3 B ZN VDD VNW VPW VSS
.ends

* Black-box entry subcircuit for gf180mcu_fd_sc_mcu7t5v0__mux4_1 abstract view
.subckt gf180mcu_fd_sc_mcu7t5v0__mux4_1 I0 I1 I2 I3 S0 S1 Z VDD VNW VPW VSS
.ends

* Black-box entry subcircuit for gf180mcu_fd_sc_mcu7t5v0__aoi221_2 abstract view
.subckt gf180mcu_fd_sc_mcu7t5v0__aoi221_2 A1 A2 B1 B2 C ZN VDD VNW VPW VSS
.ends

* Black-box entry subcircuit for gf180mcu_fd_sc_mcu7t5v0__oai31_2 abstract view
.subckt gf180mcu_fd_sc_mcu7t5v0__oai31_2 A1 A2 A3 B ZN VDD VNW VPW VSS
.ends

* Black-box entry subcircuit for gf180mcu_fd_sc_mcu7t5v0__nand3_2 abstract view
.subckt gf180mcu_fd_sc_mcu7t5v0__nand3_2 A1 A2 A3 ZN VDD VNW VPW VSS
.ends

* Black-box entry subcircuit for gf180mcu_fd_sc_mcu7t5v0__aoi21_4 abstract view
.subckt gf180mcu_fd_sc_mcu7t5v0__aoi21_4 A1 A2 B ZN VDD VNW VPW VSS
.ends

* Black-box entry subcircuit for gf180mcu_fd_sc_mcu7t5v0__aoi211_1 abstract view
.subckt gf180mcu_fd_sc_mcu7t5v0__aoi211_1 A1 A2 B C ZN VDD VNW VPW VSS
.ends

* Black-box entry subcircuit for gf180mcu_fd_sc_mcu7t5v0__xor2_1 abstract view
.subckt gf180mcu_fd_sc_mcu7t5v0__xor2_1 A1 A2 Z VDD VNW VPW VSS
.ends

* Black-box entry subcircuit for gf180mcu_fd_sc_mcu7t5v0__nand4_2 abstract view
.subckt gf180mcu_fd_sc_mcu7t5v0__nand4_2 A1 A2 A3 A4 ZN VDD VNW VPW VSS
.ends

* Black-box entry subcircuit for gf180mcu_fd_sc_mcu7t5v0__nand4_4 abstract view
.subckt gf180mcu_fd_sc_mcu7t5v0__nand4_4 A1 A2 A3 A4 ZN VDD VNW VPW VSS
.ends

* Black-box entry subcircuit for gf180mcu_fd_sc_mcu7t5v0__aoi21_2 abstract view
.subckt gf180mcu_fd_sc_mcu7t5v0__aoi21_2 A1 A2 B ZN VDD VNW VPW VSS
.ends

* Black-box entry subcircuit for gf180mcu_fd_sc_mcu7t5v0__oai32_1 abstract view
.subckt gf180mcu_fd_sc_mcu7t5v0__oai32_1 A1 A2 A3 B1 B2 ZN VDD VNW VPW VSS
.ends

* Black-box entry subcircuit for gf180mcu_fd_sc_mcu7t5v0__dffq_2 abstract view
.subckt gf180mcu_fd_sc_mcu7t5v0__dffq_2 D CLK Q VDD VNW VPW VSS
.ends

* Black-box entry subcircuit for gf180mcu_fd_sc_mcu7t5v0__aoi221_1 abstract view
.subckt gf180mcu_fd_sc_mcu7t5v0__aoi221_1 A1 A2 B1 B2 C ZN VDD VNW VPW VSS
.ends

* Black-box entry subcircuit for gf180mcu_fd_sc_mcu7t5v0__and3_1 abstract view
.subckt gf180mcu_fd_sc_mcu7t5v0__and3_1 A1 A2 A3 Z VDD VNW VPW VSS
.ends

* Black-box entry subcircuit for gf180mcu_fd_sc_mcu7t5v0__buf_3 abstract view
.subckt gf180mcu_fd_sc_mcu7t5v0__buf_3 I Z VDD VNW VPW VSS
.ends

* Black-box entry subcircuit for gf180mcu_fd_sc_mcu7t5v0__oai211_1 abstract view
.subckt gf180mcu_fd_sc_mcu7t5v0__oai211_1 A1 A2 B C ZN VDD VNW VPW VSS
.ends

* Black-box entry subcircuit for gf180mcu_fd_sc_mcu7t5v0__nor2_4 abstract view
.subckt gf180mcu_fd_sc_mcu7t5v0__nor2_4 A1 A2 ZN VDD VNW VPW VSS
.ends

* Black-box entry subcircuit for gf180mcu_fd_sc_mcu7t5v0__nor3_2 abstract view
.subckt gf180mcu_fd_sc_mcu7t5v0__nor3_2 A1 A2 A3 ZN VDD VNW VPW VSS
.ends

* Black-box entry subcircuit for gf180mcu_fd_sc_mcu7t5v0__aoi211_4 abstract view
.subckt gf180mcu_fd_sc_mcu7t5v0__aoi211_4 A1 A2 B C ZN VDD VNW VPW VSS
.ends

* Black-box entry subcircuit for gf180mcu_fd_sc_mcu7t5v0__nor2_2 abstract view
.subckt gf180mcu_fd_sc_mcu7t5v0__nor2_2 A1 A2 ZN VDD VNW VPW VSS
.ends

* Black-box entry subcircuit for gf180mcu_fd_sc_mcu7t5v0__nor4_4 abstract view
.subckt gf180mcu_fd_sc_mcu7t5v0__nor4_4 A1 A2 A3 A4 ZN VDD VNW VPW VSS
.ends

* Black-box entry subcircuit for gf180mcu_fd_sc_mcu7t5v0__xnor2_1 abstract view
.subckt gf180mcu_fd_sc_mcu7t5v0__xnor2_1 A1 A2 ZN VDD VNW VPW VSS
.ends

* Black-box entry subcircuit for gf180mcu_fd_sc_mcu7t5v0__clkbuf_3 abstract view
.subckt gf180mcu_fd_sc_mcu7t5v0__clkbuf_3 I Z VDD VNW VPW VSS
.ends

* Black-box entry subcircuit for gf180mcu_fd_sc_mcu7t5v0__nor4_2 abstract view
.subckt gf180mcu_fd_sc_mcu7t5v0__nor4_2 A1 A2 A3 A4 ZN VDD VNW VPW VSS
.ends

* Black-box entry subcircuit for gf180mcu_fd_sc_mcu7t5v0__oai211_4 abstract view
.subckt gf180mcu_fd_sc_mcu7t5v0__oai211_4 A1 A2 B C ZN VDD VNW VPW VSS
.ends

* Black-box entry subcircuit for gf180mcu_fd_sc_mcu7t5v0__aoi22_2 abstract view
.subckt gf180mcu_fd_sc_mcu7t5v0__aoi22_2 A1 A2 B1 B2 ZN VDD VNW VPW VSS
.ends

* Black-box entry subcircuit for gf180mcu_fd_sc_mcu7t5v0__oai221_2 abstract view
.subckt gf180mcu_fd_sc_mcu7t5v0__oai221_2 A1 A2 B1 B2 C ZN VDD VNW VPW VSS
.ends

* Black-box entry subcircuit for gf180mcu_fd_sc_mcu7t5v0__oai21_4 abstract view
.subckt gf180mcu_fd_sc_mcu7t5v0__oai21_4 A1 A2 B ZN VDD VNW VPW VSS
.ends

* Black-box entry subcircuit for gf180mcu_fd_sc_mcu7t5v0__nand3_4 abstract view
.subckt gf180mcu_fd_sc_mcu7t5v0__nand3_4 A1 A2 A3 ZN VDD VNW VPW VSS
.ends

* Black-box entry subcircuit for gf180mcu_fd_sc_mcu7t5v0__aoi211_2 abstract view
.subckt gf180mcu_fd_sc_mcu7t5v0__aoi211_2 A1 A2 B C ZN VDD VNW VPW VSS
.ends

* Black-box entry subcircuit for gf180mcu_fd_sc_mcu7t5v0__or3_1 abstract view
.subckt gf180mcu_fd_sc_mcu7t5v0__or3_1 A1 A2 A3 Z VDD VNW VPW VSS
.ends

* Black-box entry subcircuit for gf180mcu_fd_sc_mcu7t5v0__oai31_4 abstract view
.subckt gf180mcu_fd_sc_mcu7t5v0__oai31_4 A1 A2 A3 B ZN VDD VNW VPW VSS
.ends

* Black-box entry subcircuit for gf180mcu_fd_sc_mcu7t5v0__or4_1 abstract view
.subckt gf180mcu_fd_sc_mcu7t5v0__or4_1 A1 A2 A3 A4 Z VDD VNW VPW VSS
.ends

* Black-box entry subcircuit for gf180mcu_fd_sc_mcu7t5v0__or4_2 abstract view
.subckt gf180mcu_fd_sc_mcu7t5v0__or4_2 A1 A2 A3 A4 Z VDD VNW VPW VSS
.ends

* Black-box entry subcircuit for gf180mcu_fd_sc_mcu7t5v0__mux4_4 abstract view
.subckt gf180mcu_fd_sc_mcu7t5v0__mux4_4 I0 I1 I2 I3 S0 S1 Z VDD VNW VPW VSS
.ends

.subckt totp clk in[0] in[10] in[11] in[12] in[13] in[14] in[15] in[16] in[17] in[18]
+ in[1] in[2] in[3] in[4] in[5] in[6] in[7] in[8] in[9] out[0] out[10] out[11] out[1]
+ out[2] out[3] out[4] out[5] out[6] out[7] out[8] out[9] rst_n vdd vss
X_3155_ hotp.block.mixer.msg\[127\] hotp.block.mixer.msg\[128\] _1330_ _1331_ vdd
+ vdd vss vss gf180mcu_fd_sc_mcu7t5v0__mux2_2
X_2106_ _0555_ _0042_ vdd vdd vss vss gf180mcu_fd_sc_mcu7t5v0__clkbuf_1
X_3086_ _1291_ _0286_ vdd vdd vss vss gf180mcu_fd_sc_mcu7t5v0__clkbuf_1
X_2037_ _0514_ _0515_ vdd vdd vss vss gf180mcu_fd_sc_mcu7t5v0__buf_1
XFILLER_0_76_100 vdd vdd vss vss gf180mcu_fd_sc_mcu7t5v0__fillcap_4
XTAP_TAPCELL_ROW_25_618 vdd vss gf180mcu_fd_sc_mcu7t5v0__filltie
XTAP_TAPCELL_ROW_25_629 vdd vss gf180mcu_fd_sc_mcu7t5v0__filltie
XANTENNA_hold522_I hotp.block.sha1.mixer.w\[427\] vdd vdd vss vss gf180mcu_fd_sc_mcu7t5v0__antenna
XFILLER_0_76_177 vdd vdd vss vss gf180mcu_fd_sc_mcu7t5v0__fillcap_8
XFILLER_0_58_881 vdd vdd vss vss gf180mcu_fd_sc_mcu7t5v0__fill_1
XFILLER_0_9_422 vdd vdd vss vss gf180mcu_fd_sc_mcu7t5v0__fillcap_16
XFILLER_0_43_92 vdd vdd vss vss gf180mcu_fd_sc_mcu7t5v0__fill_2
XFILLER_0_49_369 vdd vdd vss vss gf180mcu_fd_sc_mcu7t5v0__fill_1
X_3988_ net465 clknet_leaf_114_clk hotp.block.sha1.mixer.w\[215\] vdd vdd vss vss
+ gf180mcu_fd_sc_mcu7t5v0__dffq_1
XFILLER_0_9_488 vdd vdd vss vss gf180mcu_fd_sc_mcu7t5v0__fill_2
X_2939_ _1207_ _0223_ vdd vdd vss vss gf180mcu_fd_sc_mcu7t5v0__clkbuf_1
XFILLER_0_17_288 vdd vdd vss vss gf180mcu_fd_sc_mcu7t5v0__fill_1
XFILLER_0_32_236 vdd vdd vss vss gf180mcu_fd_sc_mcu7t5v0__fill_2
XFILLER_0_32_247 vdd vdd vss vss gf180mcu_fd_sc_mcu7t5v0__fillcap_4
XFILLER_0_4_193 vdd vdd vss vss gf180mcu_fd_sc_mcu7t5v0__fill_2
Xhold351 stream.key_buf\[21\] net371 vdd vdd vss vss gf180mcu_fd_sc_mcu7t5v0__dlyb_1
XFILLER_0_13_472 vdd vdd vss vss gf180mcu_fd_sc_mcu7t5v0__fillcap_16
Xhold362 hotp.block.sha1.mixer.b\[3\] net382 vdd vdd vss vss gf180mcu_fd_sc_mcu7t5v0__dlyb_1
XFILLER_0_40_280 vdd vdd vss vss gf180mcu_fd_sc_mcu7t5v0__fill_2
Xhold340 hotp.block.sha1.mixer.e\[4\] net360 vdd vdd vss vss gf180mcu_fd_sc_mcu7t5v0__dlyb_1
Xhold395 stream.key_buf\[139\] net415 vdd vdd vss vss gf180mcu_fd_sc_mcu7t5v0__dlyb_1
Xhold373 hotp.block.sha1.mixer.w\[319\] net393 vdd vdd vss vss gf180mcu_fd_sc_mcu7t5v0__dlyb_1
Xhold384 hotp.block.sha1.mixer.d\[1\] net404 vdd vdd vss vss gf180mcu_fd_sc_mcu7t5v0__dlyb_1
XFILLER_0_99_1044 vdd vdd vss vss gf180mcu_fd_sc_mcu7t5v0__fill_1
XTAP_TAPCELL_ROW_5_332 vdd vss gf180mcu_fd_sc_mcu7t5v0__filltie
XTAP_TAPCELL_ROW_44_905 vdd vss gf180mcu_fd_sc_mcu7t5v0__filltie
XFILLER_0_23_18 vdd vdd vss vss gf180mcu_fd_sc_mcu7t5v0__fillcap_4
XTAP_TAPCELL_ROW_103_1749 vdd vss gf180mcu_fd_sc_mcu7t5v0__filltie
XFILLER_0_28_509 vdd vdd vss vss gf180mcu_fd_sc_mcu7t5v0__fill_1
XFILLER_0_82_136 vdd vdd vss vss gf180mcu_fd_sc_mcu7t5v0__fillcap_4
XFILLER_0_82_103 vdd vdd vss vss gf180mcu_fd_sc_mcu7t5v0__fill_2
XFILLER_0_64_851 vdd vdd vss vss gf180mcu_fd_sc_mcu7t5v0__fill_1
XFILLER_0_36_597 vdd vdd vss vss gf180mcu_fd_sc_mcu7t5v0__fillcap_4
XFILLER_0_23_247 vdd vdd vss vss gf180mcu_fd_sc_mcu7t5v0__fill_1
XTAP_TAPCELL_ROW_118_1981 vdd vss gf180mcu_fd_sc_mcu7t5v0__filltie
XTAP_TAPCELL_ROW_118_1970 vdd vss gf180mcu_fd_sc_mcu7t5v0__filltie
XTAP_TAPCELL_ROW_118_1992 vdd vss gf180mcu_fd_sc_mcu7t5v0__filltie
XFILLER_0_107_1044 vdd vdd vss vss gf180mcu_fd_sc_mcu7t5v0__fill_1
XFILLER_0_32_781 vdd vdd vss vss gf180mcu_fd_sc_mcu7t5v0__fill_2
XFILLER_0_48_37 vdd vdd vss vss gf180mcu_fd_sc_mcu7t5v0__fillcap_4
XFILLER_0_86_420 vdd vdd vss vss gf180mcu_fd_sc_mcu7t5v0__fillcap_4
XFILLER_0_87_976 vdd vdd vss vss gf180mcu_fd_sc_mcu7t5v0__fillcap_4
XFILLER_0_86_475 vdd vdd vss vss gf180mcu_fd_sc_mcu7t5v0__fillcap_4
X_3911_ net596 clknet_leaf_24_clk hotp.block.sha1.mixer.w\[138\] vdd vdd vss vss gf180mcu_fd_sc_mcu7t5v0__dffq_1
XFILLER_0_50_1014 vdd vdd vss vss gf180mcu_fd_sc_mcu7t5v0__fill_1
XFILLER_0_50_1025 vdd vdd vss vss gf180mcu_fd_sc_mcu7t5v0__fill_1
X_3842_ net368 clknet_leaf_12_clk hotp.block.sha1.mixer.w\[69\] vdd vdd vss vss gf180mcu_fd_sc_mcu7t5v0__dffq_1
XFILLER_0_46_317 vdd vdd vss vss gf180mcu_fd_sc_mcu7t5v0__fill_2
XFILLER_0_73_158 vdd vdd vss vss gf180mcu_fd_sc_mcu7t5v0__fill_2
XFILLER_0_6_403 vdd vdd vss vss gf180mcu_fd_sc_mcu7t5v0__fill_1
XFILLER_0_27_542 vdd vdd vss vss gf180mcu_fd_sc_mcu7t5v0__fill_1
XFILLER_0_109_290 vdd vdd vss vss gf180mcu_fd_sc_mcu7t5v0__fillcap_4
XFILLER_0_14_214 vdd vdd vss vss gf180mcu_fd_sc_mcu7t5v0__fill_2
X_3773_ net300 clknet_leaf_96_clk hotp.block.debug\[1\] vdd vdd vss vss gf180mcu_fd_sc_mcu7t5v0__dffq_1
XFILLER_0_113_912 vdd vdd vss vss gf180mcu_fd_sc_mcu7t5v0__fillcap_64
XFILLER_0_82_692 vdd vdd vss vss gf180mcu_fd_sc_mcu7t5v0__fillcap_8
X_2724_ _1030_ _1055_ _1056_ vdd vdd vss vss gf180mcu_fd_sc_mcu7t5v0__nand2_1
XANTENNA_hold103_I hotp.block.sha1.mixer.w\[461\] vdd vdd vss vss gf180mcu_fd_sc_mcu7t5v0__antenna
XFILLER_0_14_247 vdd vdd vss vss gf180mcu_fd_sc_mcu7t5v0__fill_1
XTAP_TAPCELL_ROW_30_698 vdd vss gf180mcu_fd_sc_mcu7t5v0__filltie
XFILLER_0_89_88 vdd vdd vss vss gf180mcu_fd_sc_mcu7t5v0__fill_2
X_2655_ hotp.digest\[17\] _0993_ _0994_ _0995_ vdd vdd vss vss gf180mcu_fd_sc_mcu7t5v0__oai21_1
XFILLER_0_30_707 vdd vdd vss vss gf180mcu_fd_sc_mcu7t5v0__fill_2
X_2586_ hotp.digest\[9\] _0932_ _0933_ _0934_ vdd vdd vss vss gf180mcu_fd_sc_mcu7t5v0__oai21_1
XFILLER_0_11_976 vdd vdd vss vss gf180mcu_fd_sc_mcu7t5v0__fillcap_4
XFILLER_0_10_453 vdd vdd vss vss gf180mcu_fd_sc_mcu7t5v0__fill_2
X_4325_ _0226_ clknet_leaf_89_clk hotp.block.mixer.msg\[37\] vdd vdd vss vss gf180mcu_fd_sc_mcu7t5v0__dffq_1
XANTENNA_hold472_I hotp.block.sha1.mixer.w\[184\] vdd vdd vss vss gf180mcu_fd_sc_mcu7t5v0__antenna
XANTENNA__3272__C _1395_ vdd vdd vss vss gf180mcu_fd_sc_mcu7t5v0__antenna
XFILLER_0_38_70 vdd vdd vss vss gf180mcu_fd_sc_mcu7t5v0__fill_2
X_4256_ net454 clknet_leaf_99_clk hotp.block.sha1.mixer.w\[483\] vdd vdd vss vss gf180mcu_fd_sc_mcu7t5v0__dffq_1
X_3207_ hotp.block.mixer.msg\[150\] hotp.block.mixer.msg\[151\] _1356_ _1360_ vdd
+ vdd vss vss gf180mcu_fd_sc_mcu7t5v0__mux2_2
X_4187_ net331 clknet_leaf_101_clk hotp.block.sha1.mixer.w\[414\] vdd vdd vss vss
+ gf180mcu_fd_sc_mcu7t5v0__dffq_1
X_3138_ hotp.block.mixer.msg\[120\] hotp.block.mixer.msg\[121\] _1319_ _1321_ vdd
+ vdd vss vss gf180mcu_fd_sc_mcu7t5v0__mux2_2
XFILLER_0_78_943 vdd vdd vss vss gf180mcu_fd_sc_mcu7t5v0__fill_2
X_3069_ _1281_ _0279_ vdd vdd vss vss gf180mcu_fd_sc_mcu7t5v0__clkbuf_1
XFILLER_0_49_122 vdd vdd vss vss gf180mcu_fd_sc_mcu7t5v0__fill_2
XFILLER_0_38_807 vdd vdd vss vss gf180mcu_fd_sc_mcu7t5v0__fill_2
XFILLER_0_92_434 vdd vdd vss vss gf180mcu_fd_sc_mcu7t5v0__fill_2
XFILLER_0_92_445 vdd vdd vss vss gf180mcu_fd_sc_mcu7t5v0__fill_1
XFILLER_0_46_873 vdd vdd vss vss gf180mcu_fd_sc_mcu7t5v0__fill_2
XFILLER_0_66_1043 vdd vdd vss vss gf180mcu_fd_sc_mcu7t5v0__fill_2
XFILLER_0_61_865 vdd vdd vss vss gf180mcu_fd_sc_mcu7t5v0__fill_1
XFILLER_0_115_282 vdd vdd vss vss gf180mcu_fd_sc_mcu7t5v0__fillcap_64
XFILLER_0_103_422 vdd vdd vss vss gf180mcu_fd_sc_mcu7t5v0__fillcap_4
XFILLER_0_14_770 vdd vdd vss vss gf180mcu_fd_sc_mcu7t5v0__fill_1
Xhold170 stream.key_buf\[59\] net190 vdd vdd vss vss gf180mcu_fd_sc_mcu7t5v0__dlyb_1
XANTENNA__2858__I _1160_ vdd vdd vss vss gf180mcu_fd_sc_mcu7t5v0__antenna
Xhold181 hotp.block.sha1.mixer.w\[12\] net201 vdd vdd vss vss gf180mcu_fd_sc_mcu7t5v0__dlyb_1
Xhold192 hotp.block.sha1.mixer.w\[432\] net212 vdd vdd vss vss gf180mcu_fd_sc_mcu7t5v0__dlyc_1
XANTENNA__1711__B _1425_ vdd vdd vss vss gf180mcu_fd_sc_mcu7t5v0__antenna
XFILLER_0_73_1014 vdd vdd vss vss gf180mcu_fd_sc_mcu7t5v0__fillcap_16
XFILLER_0_96_795 vdd vdd vss vss gf180mcu_fd_sc_mcu7t5v0__fillcap_8
XFILLER_0_55_125 vdd vdd vss vss gf180mcu_fd_sc_mcu7t5v0__fill_2
XFILLER_0_28_317 vdd vdd vss vss gf180mcu_fd_sc_mcu7t5v0__fillcap_16
XTAP_TAPCELL_ROW_60_1129 vdd vss gf180mcu_fd_sc_mcu7t5v0__filltie
XFILLER_0_107_772 vdd vdd vss vss gf180mcu_fd_sc_mcu7t5v0__fillcap_64
XFILLER_0_12_707 vdd vdd vss vss gf180mcu_fd_sc_mcu7t5v0__fill_2
X_2440_ _0610_ _0632_ _0613_ _0798_ _0752_ _0800_ vdd vdd vss vss gf180mcu_fd_sc_mcu7t5v0__oai221_1
XTAP_TAPCELL_ROW_75_1350 vdd vss gf180mcu_fd_sc_mcu7t5v0__filltie
X_2371_ _1421_ _0643_ _0741_ _0742_ vdd vdd vss vss gf180mcu_fd_sc_mcu7t5v0__nand3_1
X_4110_ net277 clknet_leaf_19_clk hotp.block.sha1.mixer.w\[337\] vdd vdd vss vss gf180mcu_fd_sc_mcu7t5v0__dffq_1
X_4041_ net174 clknet_leaf_14_clk hotp.block.sha1.mixer.w\[268\] vdd vdd vss vss gf180mcu_fd_sc_mcu7t5v0__dffq_1
XFILLER_0_78_206 vdd vdd vss vss gf180mcu_fd_sc_mcu7t5v0__fillcap_4
XTAP_TAPCELL_ROW_35_768 vdd vss gf180mcu_fd_sc_mcu7t5v0__filltie
XFILLER_0_47_648 vdd vdd vss vss gf180mcu_fd_sc_mcu7t5v0__fill_2
XFILLER_0_75_979 vdd vdd vss vss gf180mcu_fd_sc_mcu7t5v0__fill_1
XANTENNA_hold220_I hotp.block.sha1.mixer.w\[379\] vdd vdd vss vss gf180mcu_fd_sc_mcu7t5v0__antenna
XFILLER_0_46_136 vdd vdd vss vss gf180mcu_fd_sc_mcu7t5v0__fill_2
XFILLER_0_62_618 vdd vdd vss vss gf180mcu_fd_sc_mcu7t5v0__fill_2
XANTENNA_hold318_I hotp.block.sha1.mixer.w\[458\] vdd vdd vss vss gf180mcu_fd_sc_mcu7t5v0__antenna
XTAP_TAPCELL_ROW_15_481 vdd vss gf180mcu_fd_sc_mcu7t5v0__filltie
X_3825_ net151 clknet_leaf_102_clk hotp.block.sha1.mixer.w\[52\] vdd vdd vss vss gf180mcu_fd_sc_mcu7t5v0__dffq_1
Xclkbuf_4_12_0_clk clknet_0_clk clknet_4_12_0_clk vdd vdd vss vss gf180mcu_fd_sc_mcu7t5v0__clkbuf_8
X_3756_ net500 clknet_leaf_81_clk hotp.block.sha1.mixer.e\[15\] vdd vdd vss vss gf180mcu_fd_sc_mcu7t5v0__dffq_1
X_2707_ hotp.digest\[23\] _1040_ _1041_ vdd vdd vss vss gf180mcu_fd_sc_mcu7t5v0__nor2_1
XFILLER_0_70_695 vdd vdd vss vss gf180mcu_fd_sc_mcu7t5v0__fillcap_8
X_3687_ net761 clknet_leaf_82_clk hotp.block.sha1.mixer.c\[10\] vdd vdd vss vss gf180mcu_fd_sc_mcu7t5v0__dffq_1
X_2638_ _0840_ _0980_ vdd vdd vss vss gf180mcu_fd_sc_mcu7t5v0__buf_1
XFILLER_0_64_2 vdd vdd vss vss gf180mcu_fd_sc_mcu7t5v0__fillcap_4
XFILLER_0_100_447 vdd vdd vss vss gf180mcu_fd_sc_mcu7t5v0__fill_2
X_2569_ _0918_ _0919_ vdd vdd vss vss gf180mcu_fd_sc_mcu7t5v0__clkinv_1
XFILLER_0_10_283 vdd vdd vss vss gf180mcu_fd_sc_mcu7t5v0__fillcap_4
X_4308_ _0209_ clknet_leaf_105_clk hotp.block.mixer.msg\[20\] vdd vdd vss vss gf180mcu_fd_sc_mcu7t5v0__dffq_1
XANTENNA__2932__I1 hotp.block.mixer.msg\[32\] vdd vdd vss vss gf180mcu_fd_sc_mcu7t5v0__antenna
XANTENNA__3940__CLK clknet_leaf_2_clk vdd vdd vss vss gf180mcu_fd_sc_mcu7t5v0__antenna
X_4239_ net573 clknet_leaf_11_clk hotp.block.sha1.mixer.w\[466\] vdd vdd vss vss gf180mcu_fd_sc_mcu7t5v0__dffq_1
XANTENNA__1648__A1 net2 vdd vdd vss vss gf180mcu_fd_sc_mcu7t5v0__antenna
XFILLER_0_69_228 vdd vdd vss vss gf180mcu_fd_sc_mcu7t5v0__fill_2
XFILLER_0_77_250 vdd vdd vss vss gf180mcu_fd_sc_mcu7t5v0__fill_1
XTAP_TAPCELL_ROW_100_1708 vdd vss gf180mcu_fd_sc_mcu7t5v0__filltie
XFILLER_0_65_412 vdd vdd vss vss gf180mcu_fd_sc_mcu7t5v0__fill_2
XFILLER_0_66_968 vdd vdd vss vss gf180mcu_fd_sc_mcu7t5v0__fillcap_4
XFILLER_0_108_547 vdd vdd vss vss gf180mcu_fd_sc_mcu7t5v0__fillcap_16
XFILLER_0_65_489 vdd vdd vss vss gf180mcu_fd_sc_mcu7t5v0__fill_1
XFILLER_0_53_629 vdd vdd vss vss gf180mcu_fd_sc_mcu7t5v0__fill_1
XFILLER_0_52_128 vdd vdd vss vss gf180mcu_fd_sc_mcu7t5v0__fill_2
XFILLER_0_18_383 vdd vdd vss vss gf180mcu_fd_sc_mcu7t5v0__fill_2
XFILLER_0_104_731 vdd vdd vss vss gf180mcu_fd_sc_mcu7t5v0__fillcap_4
XFILLER_0_33_364 vdd vdd vss vss gf180mcu_fd_sc_mcu7t5v0__fillcap_8
XFILLER_0_103_241 vdd vdd vss vss gf180mcu_fd_sc_mcu7t5v0__fillcap_8
XFILLER_0_103_274 vdd vdd vss vss gf180mcu_fd_sc_mcu7t5v0__fillcap_4
XTAP_TAPCELL_ROW_57_1080 vdd vss gf180mcu_fd_sc_mcu7t5v0__filltie
XTAP_TAPCELL_ROW_57_1091 vdd vss gf180mcu_fd_sc_mcu7t5v0__filltie
XTAP_TAPCELL_ROW_70_1280 vdd vss gf180mcu_fd_sc_mcu7t5v0__filltie
XPHY_EDGE_ROW_14_Left_133 vdd vss gf180mcu_fd_sc_mcu7t5v0__endcap
XFILLER_0_28_103 vdd vdd vss vss gf180mcu_fd_sc_mcu7t5v0__fill_2
XFILLER_0_83_242 vdd vdd vss vss gf180mcu_fd_sc_mcu7t5v0__fillcap_8
XTAP_TAPCELL_ROW_32_727 vdd vss gf180mcu_fd_sc_mcu7t5v0__filltie
X_1940_ hotp.block.sha1.mixer.c\[30\] _0421_ _0423_ vdd vdd vss vss gf180mcu_fd_sc_mcu7t5v0__nor2_1
XFILLER_0_84_787 vdd vdd vss vss gf180mcu_fd_sc_mcu7t5v0__fillcap_4
X_1871_ _1521_ _0364_ vdd vdd vss vss gf180mcu_fd_sc_mcu7t5v0__clkbuf_1
XPHY_EDGE_ROW_104_Right_104 vdd vss gf180mcu_fd_sc_mcu7t5v0__endcap
XFILLER_0_83_286 vdd vdd vss vss gf180mcu_fd_sc_mcu7t5v0__fill_2
X_3610_ _0183_ clknet_leaf_45_clk hotp.digest\[37\] vdd vdd vss vss gf180mcu_fd_sc_mcu7t5v0__dffq_1
XTAP_TAPCELL_ROW_12_440 vdd vss gf180mcu_fd_sc_mcu7t5v0__filltie
XANTENNA__4190__D net213 vdd vdd vss vss gf180mcu_fd_sc_mcu7t5v0__antenna
X_3541_ _0118_ clknet_leaf_17_clk stream.digest\[31\] vdd vdd vss vss gf180mcu_fd_sc_mcu7t5v0__dffq_1
XFILLER_0_52_651 vdd vdd vss vss gf180mcu_fd_sc_mcu7t5v0__fill_2
XFILLER_0_4_737 vdd vdd vss vss gf180mcu_fd_sc_mcu7t5v0__fillcap_64
XFILLER_0_51_161 vdd vdd vss vss gf180mcu_fd_sc_mcu7t5v0__fill_1
XFILLER_0_10_41 vdd vdd vss vss gf180mcu_fd_sc_mcu7t5v0__fill_2
XFILLER_0_40_824 vdd vdd vss vss gf180mcu_fd_sc_mcu7t5v0__fill_1
X_3472_ net572 clknet_leaf_32_clk stream.key_buf\[124\] vdd vdd vss vss gf180mcu_fd_sc_mcu7t5v0__dffq_1
XPHY_EDGE_ROW_23_Left_142 vdd vss gf180mcu_fd_sc_mcu7t5v0__endcap
XFILLER_0_86_34 vdd vdd vss vss gf180mcu_fd_sc_mcu7t5v0__fill_1
X_2423_ stream.counter\[8\] _0786_ vdd vdd vss vss gf180mcu_fd_sc_mcu7t5v0__buf_1
XFILLER_0_0_954 vdd vdd vss vss gf180mcu_fd_sc_mcu7t5v0__fillcap_32
X_2354_ _0729_ _0116_ vdd vdd vss vss gf180mcu_fd_sc_mcu7t5v0__clkbuf_1
XFILLER_0_20_592 vdd vdd vss vss gf180mcu_fd_sc_mcu7t5v0__fill_2
XFILLER_0_19_72 vdd vdd vss vss gf180mcu_fd_sc_mcu7t5v0__fill_2
X_2285_ _0689_ _0690_ vdd vdd vss vss gf180mcu_fd_sc_mcu7t5v0__buf_1
XANTENNA_clkbuf_leaf_84_clk_I clknet_4_10_0_clk vdd vdd vss vss gf180mcu_fd_sc_mcu7t5v0__antenna
XFILLER_0_36_6 vdd vdd vss vss gf180mcu_fd_sc_mcu7t5v0__fill_2
XTAP_TAPCELL_ROW_88_1541 vdd vss gf180mcu_fd_sc_mcu7t5v0__filltie
XTAP_TAPCELL_ROW_88_1530 vdd vss gf180mcu_fd_sc_mcu7t5v0__filltie
X_4024_ net764 clknet_leaf_4_clk hotp.block.sha1.mixer.w\[251\] vdd vdd vss vss gf180mcu_fd_sc_mcu7t5v0__dffq_1
XPHY_EDGE_ROW_32_Left_151 vdd vss gf180mcu_fd_sc_mcu7t5v0__endcap
XANTENNA_hold435_I hotp.block.sha1.mixer.w\[128\] vdd vdd vss vss gf180mcu_fd_sc_mcu7t5v0__antenna
XFILLER_0_17_1015 vdd vdd vss vss gf180mcu_fd_sc_mcu7t5v0__fill_1
XFILLER_0_59_250 vdd vdd vss vss gf180mcu_fd_sc_mcu7t5v0__fill_1
XANTENNA_clkbuf_leaf_99_clk_I clknet_4_3_0_clk vdd vdd vss vss gf180mcu_fd_sc_mcu7t5v0__antenna
XANTENNA_hold602_I hotp.block.sha1.mixer.w\[365\] vdd vdd vss vss gf180mcu_fd_sc_mcu7t5v0__antenna
XFILLER_0_90_702 vdd vdd vss vss gf180mcu_fd_sc_mcu7t5v0__fillcap_4
XFILLER_0_63_927 vdd vdd vss vss gf180mcu_fd_sc_mcu7t5v0__fillcap_4
XANTENNA__3493__CLK clknet_leaf_28_clk vdd vdd vss vss gf180mcu_fd_sc_mcu7t5v0__antenna
XANTENNA_clkbuf_leaf_22_clk_I clknet_4_4_0_clk vdd vdd vss vss gf180mcu_fd_sc_mcu7t5v0__antenna
X_3808_ net769 clknet_leaf_108_clk hotp.block.sha1.mixer.w\[35\] vdd vdd vss vss gf180mcu_fd_sc_mcu7t5v0__dffq_1
XFILLER_0_15_331 vdd vdd vss vss gf180mcu_fd_sc_mcu7t5v0__fill_1
XTAP_TAPCELL_ROW_99_1692 vdd vss gf180mcu_fd_sc_mcu7t5v0__filltie
XFILLER_0_71_982 vdd vdd vss vss gf180mcu_fd_sc_mcu7t5v0__fillcap_32
X_3739_ net737 clknet_leaf_86_clk hotp.block.sha1.mixer.d\[30\] vdd vdd vss vss gf180mcu_fd_sc_mcu7t5v0__dffq_1
XFILLER_0_31_824 vdd vdd vss vss gf180mcu_fd_sc_mcu7t5v0__fill_1
XPHY_EDGE_ROW_41_Left_160 vdd vss gf180mcu_fd_sc_mcu7t5v0__endcap
XANTENNA_clkbuf_leaf_37_clk_I clknet_4_7_0_clk vdd vdd vss vss gf180mcu_fd_sc_mcu7t5v0__antenna
XFILLER_0_98_802 vdd vdd vss vss gf180mcu_fd_sc_mcu7t5v0__fill_2
XFILLER_0_98_857 vdd vdd vss vss gf180mcu_fd_sc_mcu7t5v0__fillcap_16
XFILLER_0_70_1017 vdd vdd vss vss gf180mcu_fd_sc_mcu7t5v0__fillcap_16
XFILLER_0_93_551 vdd vdd vss vss gf180mcu_fd_sc_mcu7t5v0__fill_2
XFILLER_0_65_220 vdd vdd vss vss gf180mcu_fd_sc_mcu7t5v0__fill_1
XANTENNA__3836__CLK clknet_leaf_12_clk vdd vdd vss vss gf180mcu_fd_sc_mcu7t5v0__antenna
XFILLER_0_38_445 vdd vdd vss vss gf180mcu_fd_sc_mcu7t5v0__fill_2
XFILLER_0_108_333 vdd vdd vss vss gf180mcu_fd_sc_mcu7t5v0__fillcap_8
XFILLER_0_81_724 vdd vdd vss vss gf180mcu_fd_sc_mcu7t5v0__fill_2
XFILLER_0_54_927 vdd vdd vss vss gf180mcu_fd_sc_mcu7t5v0__fill_2
XFILLER_0_81_735 vdd vdd vss vss gf180mcu_fd_sc_mcu7t5v0__fill_1
XFILLER_0_53_426 vdd vdd vss vss gf180mcu_fd_sc_mcu7t5v0__fill_2
XFILLER_0_47_990 vdd vdd vss vss gf180mcu_fd_sc_mcu7t5v0__fill_1
XFILLER_0_80_267 vdd vdd vss vss gf180mcu_fd_sc_mcu7t5v0__fill_2
XFILLER_0_34_662 vdd vdd vss vss gf180mcu_fd_sc_mcu7t5v0__fill_2
XTAP_TAPCELL_ROW_59_1120 vdd vss gf180mcu_fd_sc_mcu7t5v0__filltie
XFILLER_0_33_150 vdd vdd vss vss gf180mcu_fd_sc_mcu7t5v0__fillcap_4
XFILLER_0_0_206 vdd vdd vss vss gf180mcu_fd_sc_mcu7t5v0__fill_2
XFILLER_0_21_345 vdd vdd vss vss gf180mcu_fd_sc_mcu7t5v0__fillcap_4
XFILLER_0_33_194 vdd vdd vss vss gf180mcu_fd_sc_mcu7t5v0__fill_2
XFILLER_0_56_37 vdd vdd vss vss gf180mcu_fd_sc_mcu7t5v0__fill_2
XFILLER_0_79_1042 vdd vdd vss vss gf180mcu_fd_sc_mcu7t5v0__fill_2
X_2070_ _0529_ _0535_ vdd vdd vss vss gf180mcu_fd_sc_mcu7t5v0__clkbuf_2
XANTENNA__4185__D net30 vdd vdd vss vss gf180mcu_fd_sc_mcu7t5v0__antenna
XFILLER_0_88_367 vdd vdd vss vss gf180mcu_fd_sc_mcu7t5v0__fill_2