*SPEF "ieee 1481-1999"
*DESIGN "cells9"
*DATE "11:11:11 Fri 11 11, 1111"
*VENDOR "OpenRCX"
*PROGRAM "Parallel Extraction"
*VERSION "1.0"
*DESIGN_FLOW "NAME_SCOPE LOCAL" "PIN_CAP NONE"
*DIVIDER /
*DELIMITER :
*BUS_DELIMITER []
*T_UNIT 1 NS
*C_UNIT 1 PF
*R_UNIT 1 OHM
*L_UNIT 1 HENRY

*NAME_MAP
*1 clk
*2 in[0]
*3 in[10]
*4 in[11]
*5 in[12]
*6 in[13]
*7 in[14]
*8 in[15]
*9 in[16]
*10 in[17]
*11 in[1]
*12 in[2]
*13 in[3]
*14 in[4]
*15 in[5]
*16 in[6]
*17 in[7]
*18 in[8]
*19 in[9]
*20 out[0]
*21 out[10]
*22 out[11]
*23 out[1]
*24 out[2]
*25 out[3]
*26 out[4]
*27 out[5]
*28 out[6]
*29 out[7]
*30 out[8]
*31 out[9]
*32 rst_n
*35 _000_
*36 _001_
*37 _002_
*38 _003_
*39 _004_
*40 _005_
*41 _006_
*42 _007_
*43 _008_
*44 _009_
*45 _010_
*46 _011_
*47 _012_
*48 _013_
*49 _014_
*50 _015_
*51 _016_
*52 _017_
*53 _018_
*54 _019_
*55 _020_
*56 _021_
*57 _022_
*58 _023_
*59 _024_
*60 _025_
*61 _026_
*62 _027_
*63 _028_
*64 _029_
*65 _030_
*66 _031_
*67 _032_
*68 _033_
*69 _034_
*70 _035_
*71 _036_
*72 _037_
*73 _038_
*74 _039_
*75 _040_
*76 _041_
*77 _042_
*78 _043_
*79 _044_
*80 _045_
*81 _046_
*82 _047_
*83 _048_
*84 _049_
*85 _050_
*86 _051_
*87 _052_
*88 _053_
*89 _054_
*90 _055_
*91 _056_
*92 _057_
*93 _058_
*94 _059_
*95 _060_
*96 _061_
*97 _062_
*98 _063_
*99 _064_
*100 _065_
*101 _066_
*102 _067_
*103 _068_
*104 _069_
*105 _070_
*106 _071_
*107 _072_
*108 _073_
*109 _074_
*110 _075_
*111 _076_
*112 _077_
*113 _078_
*114 _079_
*115 _080_
*116 _081_
*117 _082_
*118 _083_
*119 _084_
*120 _085_
*121 _086_
*122 _087_
*123 _088_
*124 _089_
*125 _090_
*126 _091_
*127 _092_
*128 _093_
*129 _094_
*130 _095_
*131 _096_
*132 _097_
*133 _098_
*134 _099_
*135 _100_
*136 _101_
*137 _102_
*138 _103_
*139 _104_
*140 _105_
*141 _106_
*142 _107_
*143 _108_
*144 _109_
*145 _110_
*146 _111_
*147 _112_
*148 _113_
*149 _114_
*150 _115_
*151 _116_
*152 _117_
*153 _118_
*154 _119_
*155 _120_
*156 _121_
*157 _122_
*158 _123_
*159 _124_
*160 _125_
*161 _126_
*162 _127_
*163 _128_
*164 _129_
*165 _130_
*166 _131_
*167 _132_
*168 _133_
*169 _134_
*170 _135_
*171 _136_
*172 _137_
*173 _138_
*174 _139_
*175 _140_
*176 _141_
*177 _142_
*178 _143_
*179 _144_
*180 _145_
*181 _146_
*182 _147_
*183 _148_
*184 _149_
*185 _150_
*186 _151_
*187 _152_
*188 _153_
*189 _154_
*190 _155_
*191 _156_
*192 _157_
*193 _158_
*194 _159_
*195 _160_
*196 _161_
*197 _162_
*198 _163_
*199 _164_
*200 _165_
*201 _166_
*202 _167_
*203 _168_
*204 _169_
*205 _170_
*206 _171_
*207 _172_
*208 _173_
*209 _174_
*210 _175_
*211 _176_
*212 _177_
*213 _178_
*214 _179_
*215 _180_
*216 _181_
*217 _182_
*218 _183_
*219 _184_
*220 _185_
*221 _186_
*222 _187_
*223 _188_
*224 _189_
*225 _190_
*226 _191_
*227 _192_
*228 _193_
*229 _194_
*230 _195_
*231 _196_
*232 _197_
*233 _198_
*234 _199_
*235 _200_
*236 _201_
*237 _202_
*238 _203_
*239 _204_
*240 _205_
*241 _206_
*242 _207_
*243 _208_
*244 _209_
*245 _210_
*246 _211_
*247 _212_
*248 _213_
*249 _214_
*250 _215_
*251 _216_
*252 _217_
*253 _218_
*254 _219_
*255 _220_
*256 _221_
*257 _222_
*258 _223_
*259 _224_
*260 _225_
*261 _226_
*262 _227_
*263 _228_
*264 _229_
*265 _230_
*266 _231_
*267 _232_
*268 _233_
*269 _234_
*270 _235_
*271 _236_
*272 _237_
*273 _238_
*274 _239_
*275 _240_
*276 _241_
*277 _242_
*278 _243_
*279 cm_inst\.cc_inst\.in\[0\]
*280 cm_inst\.cc_inst\.in\[1\]
*281 cm_inst\.cc_inst\.in\[2\]
*282 cm_inst\.cc_inst\.in\[3\]
*283 cm_inst\.cc_inst\.in\[4\]
*284 cm_inst\.cc_inst\.in\[5\]
*285 cm_inst\.cc_inst\.out_notouch_\[0\]
*286 cm_inst\.cc_inst\.out_notouch_\[100\]
*287 cm_inst\.cc_inst\.out_notouch_\[101\]
*288 cm_inst\.cc_inst\.out_notouch_\[102\]
*289 cm_inst\.cc_inst\.out_notouch_\[103\]
*290 cm_inst\.cc_inst\.out_notouch_\[104\]
*291 cm_inst\.cc_inst\.out_notouch_\[105\]
*292 cm_inst\.cc_inst\.out_notouch_\[106\]
*293 cm_inst\.cc_inst\.out_notouch_\[107\]
*294 cm_inst\.cc_inst\.out_notouch_\[108\]
*295 cm_inst\.cc_inst\.out_notouch_\[109\]
*296 cm_inst\.cc_inst\.out_notouch_\[10\]
*297 cm_inst\.cc_inst\.out_notouch_\[110\]
*298 cm_inst\.cc_inst\.out_notouch_\[111\]
*299 cm_inst\.cc_inst\.out_notouch_\[112\]
*300 cm_inst\.cc_inst\.out_notouch_\[113\]
*301 cm_inst\.cc_inst\.out_notouch_\[114\]
*302 cm_inst\.cc_inst\.out_notouch_\[115\]
*303 cm_inst\.cc_inst\.out_notouch_\[116\]
*304 cm_inst\.cc_inst\.out_notouch_\[117\]
*305 cm_inst\.cc_inst\.out_notouch_\[118\]
*306 cm_inst\.cc_inst\.out_notouch_\[119\]
*307 cm_inst\.cc_inst\.out_notouch_\[11\]
*308 cm_inst\.cc_inst\.out_notouch_\[120\]
*309 cm_inst\.cc_inst\.out_notouch_\[121\]
*310 cm_inst\.cc_inst\.out_notouch_\[122\]
*311 cm_inst\.cc_inst\.out_notouch_\[123\]
*312 cm_inst\.cc_inst\.out_notouch_\[124\]
*313 cm_inst\.cc_inst\.out_notouch_\[125\]
*314 cm_inst\.cc_inst\.out_notouch_\[126\]
*315 cm_inst\.cc_inst\.out_notouch_\[127\]
*316 cm_inst\.cc_inst\.out_notouch_\[128\]
*317 cm_inst\.cc_inst\.out_notouch_\[129\]
*318 cm_inst\.cc_inst\.out_notouch_\[12\]
*319 cm_inst\.cc_inst\.out_notouch_\[130\]
*320 cm_inst\.cc_inst\.out_notouch_\[131\]
*321 cm_inst\.cc_inst\.out_notouch_\[132\]
*322 cm_inst\.cc_inst\.out_notouch_\[133\]
*323 cm_inst\.cc_inst\.out_notouch_\[134\]
*324 cm_inst\.cc_inst\.out_notouch_\[135\]
*325 cm_inst\.cc_inst\.out_notouch_\[136\]
*326 cm_inst\.cc_inst\.out_notouch_\[137\]
*327 cm_inst\.cc_inst\.out_notouch_\[138\]
*328 cm_inst\.cc_inst\.out_notouch_\[139\]
*329 cm_inst\.cc_inst\.out_notouch_\[13\]
*330 cm_inst\.cc_inst\.out_notouch_\[140\]
*331 cm_inst\.cc_inst\.out_notouch_\[141\]
*332 cm_inst\.cc_inst\.out_notouch_\[142\]
*333 cm_inst\.cc_inst\.out_notouch_\[143\]
*334 cm_inst\.cc_inst\.out_notouch_\[144\]
*335 cm_inst\.cc_inst\.out_notouch_\[145\]
*336 cm_inst\.cc_inst\.out_notouch_\[146\]
*337 cm_inst\.cc_inst\.out_notouch_\[147\]
*338 cm_inst\.cc_inst\.out_notouch_\[148\]
*339 cm_inst\.cc_inst\.out_notouch_\[149\]
*340 cm_inst\.cc_inst\.out_notouch_\[14\]
*341 cm_inst\.cc_inst\.out_notouch_\[150\]
*342 cm_inst\.cc_inst\.out_notouch_\[151\]
*343 cm_inst\.cc_inst\.out_notouch_\[152\]
*344 cm_inst\.cc_inst\.out_notouch_\[153\]
*345 cm_inst\.cc_inst\.out_notouch_\[154\]
*346 cm_inst\.cc_inst\.out_notouch_\[155\]
*347 cm_inst\.cc_inst\.out_notouch_\[156\]
*348 cm_inst\.cc_inst\.out_notouch_\[157\]
*349 cm_inst\.cc_inst\.out_notouch_\[158\]
*350 cm_inst\.cc_inst\.out_notouch_\[159\]
*351 cm_inst\.cc_inst\.out_notouch_\[15\]
*352 cm_inst\.cc_inst\.out_notouch_\[160\]
*353 cm_inst\.cc_inst\.out_notouch_\[161\]
*354 cm_inst\.cc_inst\.out_notouch_\[162\]
*355 cm_inst\.cc_inst\.out_notouch_\[163\]
*356 cm_inst\.cc_inst\.out_notouch_\[164\]
*357 cm_inst\.cc_inst\.out_notouch_\[165\]
*358 cm_inst\.cc_inst\.out_notouch_\[166\]
*359 cm_inst\.cc_inst\.out_notouch_\[167\]
*360 cm_inst\.cc_inst\.out_notouch_\[168\]
*361 cm_inst\.cc_inst\.out_notouch_\[169\]
*362 cm_inst\.cc_inst\.out_notouch_\[16\]
*363 cm_inst\.cc_inst\.out_notouch_\[170\]
*364 cm_inst\.cc_inst\.out_notouch_\[171\]
*365 cm_inst\.cc_inst\.out_notouch_\[172\]
*366 cm_inst\.cc_inst\.out_notouch_\[173\]
*367 cm_inst\.cc_inst\.out_notouch_\[174\]
*368 cm_inst\.cc_inst\.out_notouch_\[175\]
*369 cm_inst\.cc_inst\.out_notouch_\[176\]
*370 cm_inst\.cc_inst\.out_notouch_\[177\]
*371 cm_inst\.cc_inst\.out_notouch_\[178\]
*372 cm_inst\.cc_inst\.out_notouch_\[179\]
*373 cm_inst\.cc_inst\.out_notouch_\[17\]
*374 cm_inst\.cc_inst\.out_notouch_\[180\]
*375 cm_inst\.cc_inst\.out_notouch_\[181\]
*376 cm_inst\.cc_inst\.out_notouch_\[182\]
*377 cm_inst\.cc_inst\.out_notouch_\[183\]
*378 cm_inst\.cc_inst\.out_notouch_\[184\]
*379 cm_inst\.cc_inst\.out_notouch_\[185\]
*380 cm_inst\.cc_inst\.out_notouch_\[186\]
*381 cm_inst\.cc_inst\.out_notouch_\[187\]
*382 cm_inst\.cc_inst\.out_notouch_\[188\]
*383 cm_inst\.cc_inst\.out_notouch_\[189\]
*384 cm_inst\.cc_inst\.out_notouch_\[18\]
*385 cm_inst\.cc_inst\.out_notouch_\[190\]
*386 cm_inst\.cc_inst\.out_notouch_\[191\]
*387 cm_inst\.cc_inst\.out_notouch_\[192\]
*388 cm_inst\.cc_inst\.out_notouch_\[193\]
*389 cm_inst\.cc_inst\.out_notouch_\[194\]
*390 cm_inst\.cc_inst\.out_notouch_\[195\]
*391 cm_inst\.cc_inst\.out_notouch_\[196\]
*392 cm_inst\.cc_inst\.out_notouch_\[197\]
*393 cm_inst\.cc_inst\.out_notouch_\[198\]
*394 cm_inst\.cc_inst\.out_notouch_\[199\]
*395 cm_inst\.cc_inst\.out_notouch_\[19\]
*396 cm_inst\.cc_inst\.out_notouch_\[1\]
*397 cm_inst\.cc_inst\.out_notouch_\[200\]
*398 cm_inst\.cc_inst\.out_notouch_\[201\]
*399 cm_inst\.cc_inst\.out_notouch_\[202\]
*400 cm_inst\.cc_inst\.out_notouch_\[203\]
*401 cm_inst\.cc_inst\.out_notouch_\[204\]
*402 cm_inst\.cc_inst\.out_notouch_\[205\]
*403 cm_inst\.cc_inst\.out_notouch_\[206\]
*404 cm_inst\.cc_inst\.out_notouch_\[208\]
*405 cm_inst\.cc_inst\.out_notouch_\[209\]
*406 cm_inst\.cc_inst\.out_notouch_\[20\]
*407 cm_inst\.cc_inst\.out_notouch_\[21\]
*408 cm_inst\.cc_inst\.out_notouch_\[22\]
*409 cm_inst\.cc_inst\.out_notouch_\[23\]
*410 cm_inst\.cc_inst\.out_notouch_\[24\]
*411 cm_inst\.cc_inst\.out_notouch_\[25\]
*412 cm_inst\.cc_inst\.out_notouch_\[26\]
*413 cm_inst\.cc_inst\.out_notouch_\[27\]
*414 cm_inst\.cc_inst\.out_notouch_\[28\]
*415 cm_inst\.cc_inst\.out_notouch_\[29\]
*416 cm_inst\.cc_inst\.out_notouch_\[2\]
*417 cm_inst\.cc_inst\.out_notouch_\[30\]
*418 cm_inst\.cc_inst\.out_notouch_\[31\]
*419 cm_inst\.cc_inst\.out_notouch_\[32\]
*420 cm_inst\.cc_inst\.out_notouch_\[33\]
*421 cm_inst\.cc_inst\.out_notouch_\[34\]
*422 cm_inst\.cc_inst\.out_notouch_\[35\]
*423 cm_inst\.cc_inst\.out_notouch_\[36\]
*424 cm_inst\.cc_inst\.out_notouch_\[37\]
*425 cm_inst\.cc_inst\.out_notouch_\[38\]
*426 cm_inst\.cc_inst\.out_notouch_\[39\]
*427 cm_inst\.cc_inst\.out_notouch_\[3\]
*428 cm_inst\.cc_inst\.out_notouch_\[40\]
*429 cm_inst\.cc_inst\.out_notouch_\[41\]
*430 cm_inst\.cc_inst\.out_notouch_\[42\]
*431 cm_inst\.cc_inst\.out_notouch_\[43\]
*432 cm_inst\.cc_inst\.out_notouch_\[44\]
*433 cm_inst\.cc_inst\.out_notouch_\[45\]
*434 cm_inst\.cc_inst\.out_notouch_\[46\]
*435 cm_inst\.cc_inst\.out_notouch_\[47\]
*436 cm_inst\.cc_inst\.out_notouch_\[48\]
*437 cm_inst\.cc_inst\.out_notouch_\[49\]
*438 cm_inst\.cc_inst\.out_notouch_\[4\]
*439 cm_inst\.cc_inst\.out_notouch_\[50\]
*440 cm_inst\.cc_inst\.out_notouch_\[51\]
*441 cm_inst\.cc_inst\.out_notouch_\[52\]
*442 cm_inst\.cc_inst\.out_notouch_\[53\]
*443 cm_inst\.cc_inst\.out_notouch_\[54\]
*444 cm_inst\.cc_inst\.out_notouch_\[55\]
*445 cm_inst\.cc_inst\.out_notouch_\[56\]
*446 cm_inst\.cc_inst\.out_notouch_\[57\]
*447 cm_inst\.cc_inst\.out_notouch_\[58\]
*448 cm_inst\.cc_inst\.out_notouch_\[59\]
*449 cm_inst\.cc_inst\.out_notouch_\[5\]
*450 cm_inst\.cc_inst\.out_notouch_\[60\]
*451 cm_inst\.cc_inst\.out_notouch_\[61\]
*452 cm_inst\.cc_inst\.out_notouch_\[62\]
*453 cm_inst\.cc_inst\.out_notouch_\[63\]
*454 cm_inst\.cc_inst\.out_notouch_\[64\]
*455 cm_inst\.cc_inst\.out_notouch_\[65\]
*456 cm_inst\.cc_inst\.out_notouch_\[66\]
*457 cm_inst\.cc_inst\.out_notouch_\[67\]
*458 cm_inst\.cc_inst\.out_notouch_\[68\]
*459 cm_inst\.cc_inst\.out_notouch_\[69\]
*460 cm_inst\.cc_inst\.out_notouch_\[6\]
*461 cm_inst\.cc_inst\.out_notouch_\[70\]
*462 cm_inst\.cc_inst\.out_notouch_\[71\]
*463 cm_inst\.cc_inst\.out_notouch_\[72\]
*464 cm_inst\.cc_inst\.out_notouch_\[73\]
*465 cm_inst\.cc_inst\.out_notouch_\[74\]
*466 cm_inst\.cc_inst\.out_notouch_\[75\]
*467 cm_inst\.cc_inst\.out_notouch_\[76\]
*468 cm_inst\.cc_inst\.out_notouch_\[77\]
*469 cm_inst\.cc_inst\.out_notouch_\[78\]
*470 cm_inst\.cc_inst\.out_notouch_\[79\]
*471 cm_inst\.cc_inst\.out_notouch_\[7\]
*472 cm_inst\.cc_inst\.out_notouch_\[80\]
*473 cm_inst\.cc_inst\.out_notouch_\[81\]
*474 cm_inst\.cc_inst\.out_notouch_\[82\]
*475 cm_inst\.cc_inst\.out_notouch_\[83\]
*476 cm_inst\.cc_inst\.out_notouch_\[84\]
*477 cm_inst\.cc_inst\.out_notouch_\[85\]
*478 cm_inst\.cc_inst\.out_notouch_\[86\]
*479 cm_inst\.cc_inst\.out_notouch_\[87\]
*480 cm_inst\.cc_inst\.out_notouch_\[88\]
*481 cm_inst\.cc_inst\.out_notouch_\[89\]
*482 cm_inst\.cc_inst\.out_notouch_\[8\]
*483 cm_inst\.cc_inst\.out_notouch_\[90\]
*484 cm_inst\.cc_inst\.out_notouch_\[91\]
*485 cm_inst\.cc_inst\.out_notouch_\[92\]
*486 cm_inst\.cc_inst\.out_notouch_\[93\]
*487 cm_inst\.cc_inst\.out_notouch_\[94\]
*488 cm_inst\.cc_inst\.out_notouch_\[95\]
*489 cm_inst\.cc_inst\.out_notouch_\[96\]
*490 cm_inst\.cc_inst\.out_notouch_\[97\]
*491 cm_inst\.cc_inst\.out_notouch_\[98\]
*492 cm_inst\.cc_inst\.out_notouch_\[99\]
*493 cm_inst\.cc_inst\.out_notouch_\[9\]
*494 cm_inst\.page\[0\]
*495 cm_inst\.page\[1\]
*496 cm_inst\.page\[2\]
*497 cm_inst\.page\[3\]
*498 cm_inst\.page\[4\]
*499 cm_inst\.page\[5\]
*500 ro_inst\.counter\[0\]
*501 ro_inst\.counter\[10\]
*502 ro_inst\.counter\[11\]
*503 ro_inst\.counter\[12\]
*504 ro_inst\.counter\[13\]
*505 ro_inst\.counter\[14\]
*506 ro_inst\.counter\[15\]
*507 ro_inst\.counter\[16\]
*508 ro_inst\.counter\[17\]
*509 ro_inst\.counter\[18\]
*510 ro_inst\.counter\[19\]
*511 ro_inst\.counter\[1\]
*512 ro_inst\.counter\[20\]
*513 ro_inst\.counter\[21\]
*514 ro_inst\.counter\[22\]
*515 ro_inst\.counter\[23\]
*516 ro_inst\.counter\[24\]
*517 ro_inst\.counter\[25\]
*518 ro_inst\.counter\[26\]
*519 ro_inst\.counter\[27\]
*520 ro_inst\.counter\[28\]
*521 ro_inst\.counter\[29\]
*522 ro_inst\.counter\[2\]
*523 ro_inst\.counter\[30\]
*524 ro_inst\.counter\[31\]
*525 ro_inst\.counter\[32\]
*526 ro_inst\.counter\[33\]
*527 ro_inst\.counter\[34\]
*528 ro_inst\.counter\[3\]
*529 ro_inst\.counter\[4\]
*530 ro_inst\.counter\[5\]
*531 ro_inst\.counter\[6\]
*532 ro_inst\.counter\[7\]
*533 ro_inst\.counter\[8\]
*534 ro_inst\.counter\[9\]
*535 ro_inst\.counter_n\[0\]
*536 ro_inst\.counter_n\[10\]
*537 ro_inst\.counter_n\[11\]
*538 ro_inst\.counter_n\[12\]
*539 ro_inst\.counter_n\[13\]
*540 ro_inst\.counter_n\[14\]
*541 ro_inst\.counter_n\[15\]
*542 ro_inst\.counter_n\[16\]
*543 ro_inst\.counter_n\[17\]
*544 ro_inst\.counter_n\[18\]
*545 ro_inst\.counter_n\[19\]
*546 ro_inst\.counter_n\[1\]
*547 ro_inst\.counter_n\[20\]
*548 ro_inst\.counter_n\[21\]
*549 ro_inst\.counter_n\[22\]
*550 ro_inst\.counter_n\[23\]
*551 ro_inst\.counter_n\[24\]
*552 ro_inst\.counter_n\[25\]
*553 ro_inst\.counter_n\[26\]
*554 ro_inst\.counter_n\[27\]
*555 ro_inst\.counter_n\[28\]
*556 ro_inst\.counter_n\[29\]
*557 ro_inst\.counter_n\[2\]
*558 ro_inst\.counter_n\[30\]
*559 ro_inst\.counter_n\[31\]
*560 ro_inst\.counter_n\[32\]
*561 ro_inst\.counter_n\[33\]
*562 ro_inst\.counter_n\[34\]
*563 ro_inst\.counter_n\[3\]
*564 ro_inst\.counter_n\[4\]
*565 ro_inst\.counter_n\[5\]
*566 ro_inst\.counter_n\[6\]
*567 ro_inst\.counter_n\[7\]
*568 ro_inst\.counter_n\[8\]
*569 ro_inst\.counter_n\[9\]
*570 ro_inst\.enable
*571 ro_inst\.ring\[0\]
*572 ro_inst\.ring\[1\]
*573 ro_inst\.ring\[2\]
*574 ro_inst\.running
*575 ro_inst\.saved_signal
*576 ro_inst\.signal
*577 ro_inst\.slow_clk_n
*578 ro_sel\[0\]
*579 ro_sel\[1\]
*580 ro_sel\[2\]
*581 ANTENNA__249__I
*582 ANTENNA__250__I
*583 ANTENNA__262__I
*584 ANTENNA__263__S0
*585 ANTENNA__263__S1
*586 ANTENNA__264__I
*587 ANTENNA__269__I
*588 ANTENNA__270__S
*589 ANTENNA__280__S
*590 ANTENNA__281__A1
*591 ANTENNA__284__A2
*592 ANTENNA__290__I
*593 ANTENNA__291__S0
*594 ANTENNA__291__S1
*595 ANTENNA__292__I
*596 ANTENNA__294__S0
*597 ANTENNA__294__S1
*598 ANTENNA__297__S0
*599 ANTENNA__297__S1
*600 ANTENNA__300__S1
*601 ANTENNA__302__S
*602 ANTENNA__303__A2
*603 ANTENNA__305__I
*604 ANTENNA__308__S0
*605 ANTENNA__309__S
*606 ANTENNA__319__A2
*607 ANTENNA__322__S0
*608 ANTENNA__324__I
*609 ANTENNA__326__S1
*610 ANTENNA__327__S
*611 ANTENNA__328__I
*612 ANTENNA__330__S
*613 ANTENNA__333__I
*614 ANTENNA__338__I
*615 ANTENNA__339__S
*616 ANTENNA__340__B
*617 ANTENNA__349__I
*618 ANTENNA__357__B
*619 ANTENNA__363__S1
*620 ANTENNA__365__S
*621 ANTENNA__366__S
*622 ANTENNA__368__S1
*623 ANTENNA__372__S1
*624 ANTENNA__376__S
*625 ANTENNA__377__A2
*626 ANTENNA__381__S1
*627 ANTENNA__382__I
*628 ANTENNA__383__I
*629 ANTENNA__385__I1
*630 ANTENNA__385__S
*631 ANTENNA__386__S
*632 ANTENNA__391__S
*633 ANTENNA__392__B
*634 ANTENNA__402__B
*635 ANTENNA__406__I
*636 ANTENNA__409__S
*637 ANTENNA__420__S
*638 ANTENNA__421__A2
*639 ANTENNA__424__S1
*640 ANTENNA__426__S
*641 ANTENNA__432__B
*642 ANTENNA__442__B
*643 ANTENNA__451__S
*644 ANTENNA__452__S
*645 ANTENNA__454__S0
*646 ANTENNA__455__S0
*647 ANTENNA__470__I
*648 ANTENNA__471__I
*649 ANTENNA__472__I
*650 ANTENNA__473__B
*651 ANTENNA__475__I0
*652 ANTENNA__476__I0
*653 ANTENNA__477__I0
*654 ANTENNA__478__I
*655 ANTENNA__483__I0
*656 ANTENNA__483__I1
*657 ANTENNA__485__I0
*658 ANTENNA__485__I1
*659 ANTENNA__486__I0
*660 ANTENNA__486__I1
*661 ANTENNA__487__I0
*662 ANTENNA__487__I1
*663 ANTENNA__488__I0
*664 ANTENNA__488__I1
*665 ANTENNA__489__I0
*666 ANTENNA__489__I1
*667 ANTENNA__492__A1
*668 ANTENNA__492__A2
*669 ANTENNA__492__A3
*670 ANTENNA__492__A4
*671 ANTENNA__493__I0
*672 ANTENNA__494__I0
*673 ANTENNA__495__I0
*674 ANTENNA__496__CLK
*675 ANTENNA__497__CLK
*676 ANTENNA__498__CLK
*677 ANTENNA__499__CLK
*678 ANTENNA__500__CLK
*679 ANTENNA__501__CLK
*680 ANTENNA__502__CLK
*681 ANTENNA__503__CLK
*682 ANTENNA__504__CLK
*683 ANTENNA__505__CLK
*684 ANTENNA__506__CLK
*685 ANTENNA__507__CLK
*686 ANTENNA__508__CLK
*687 ANTENNA__509__CLK
*688 ANTENNA__510__CLK
*689 ANTENNA__511__CLK
*690 ANTENNA_cm_inst\.cc_inst\.addf_1_inst_A
*691 ANTENNA_cm_inst\.cc_inst\.addf_1_inst_B
*692 ANTENNA_cm_inst\.cc_inst\.addf_1_inst_CI
*693 ANTENNA_cm_inst\.cc_inst\.addf_2_inst_A
*694 ANTENNA_cm_inst\.cc_inst\.addf_2_inst_B
*695 ANTENNA_cm_inst\.cc_inst\.addf_2_inst_CI
*696 ANTENNA_cm_inst\.cc_inst\.addf_4_inst_A
*697 ANTENNA_cm_inst\.cc_inst\.addf_4_inst_B
*698 ANTENNA_cm_inst\.cc_inst\.addf_4_inst_CI
*699 ANTENNA_cm_inst\.cc_inst\.addh_1_inst_A
*700 ANTENNA_cm_inst\.cc_inst\.addh_1_inst_B
*701 ANTENNA_cm_inst\.cc_inst\.addh_2_inst_A
*702 ANTENNA_cm_inst\.cc_inst\.addh_2_inst_B
*703 ANTENNA_cm_inst\.cc_inst\.addh_4_inst_A
*704 ANTENNA_cm_inst\.cc_inst\.addh_4_inst_B
*705 ANTENNA_cm_inst\.cc_inst\.and2_1_inst_A1
*706 ANTENNA_cm_inst\.cc_inst\.and2_1_inst_A2
*707 ANTENNA_cm_inst\.cc_inst\.and2_2_inst_A1
*708 ANTENNA_cm_inst\.cc_inst\.and2_2_inst_A2
*709 ANTENNA_cm_inst\.cc_inst\.and2_4_inst_A1
*710 ANTENNA_cm_inst\.cc_inst\.and2_4_inst_A2
*711 ANTENNA_cm_inst\.cc_inst\.and3_1_inst_A1
*712 ANTENNA_cm_inst\.cc_inst\.and3_1_inst_A2
*713 ANTENNA_cm_inst\.cc_inst\.and3_1_inst_A3
*714 ANTENNA_cm_inst\.cc_inst\.and3_2_inst_A1
*715 ANTENNA_cm_inst\.cc_inst\.and3_2_inst_A2
*716 ANTENNA_cm_inst\.cc_inst\.and3_2_inst_A3
*717 ANTENNA_cm_inst\.cc_inst\.and3_4_inst_A1
*718 ANTENNA_cm_inst\.cc_inst\.and3_4_inst_A2
*719 ANTENNA_cm_inst\.cc_inst\.and3_4_inst_A3
*720 ANTENNA_cm_inst\.cc_inst\.and4_1_inst_A1
*721 ANTENNA_cm_inst\.cc_inst\.and4_1_inst_A2
*722 ANTENNA_cm_inst\.cc_inst\.and4_1_inst_A3
*723 ANTENNA_cm_inst\.cc_inst\.and4_1_inst_A4
*724 ANTENNA_cm_inst\.cc_inst\.and4_2_inst_A1
*725 ANTENNA_cm_inst\.cc_inst\.and4_2_inst_A2
*726 ANTENNA_cm_inst\.cc_inst\.and4_2_inst_A3
*727 ANTENNA_cm_inst\.cc_inst\.and4_2_inst_A4
*728 ANTENNA_cm_inst\.cc_inst\.and4_4_inst_A1
*729 ANTENNA_cm_inst\.cc_inst\.and4_4_inst_A2
*730 ANTENNA_cm_inst\.cc_inst\.and4_4_inst_A3
*731 ANTENNA_cm_inst\.cc_inst\.and4_4_inst_A4
*732 ANTENNA_cm_inst\.cc_inst\.aoi211_1_inst_A1
*733 ANTENNA_cm_inst\.cc_inst\.aoi211_1_inst_A2
*734 ANTENNA_cm_inst\.cc_inst\.aoi211_1_inst_B
*735 ANTENNA_cm_inst\.cc_inst\.aoi211_1_inst_C
*736 ANTENNA_cm_inst\.cc_inst\.aoi211_2_inst_A1
*737 ANTENNA_cm_inst\.cc_inst\.aoi211_2_inst_A2
*738 ANTENNA_cm_inst\.cc_inst\.aoi211_2_inst_B
*739 ANTENNA_cm_inst\.cc_inst\.aoi211_2_inst_C
*740 ANTENNA_cm_inst\.cc_inst\.aoi211_4_inst_A1
*741 ANTENNA_cm_inst\.cc_inst\.aoi211_4_inst_A2
*742 ANTENNA_cm_inst\.cc_inst\.aoi211_4_inst_B
*743 ANTENNA_cm_inst\.cc_inst\.aoi211_4_inst_C
*744 ANTENNA_cm_inst\.cc_inst\.aoi21_1_inst_A1
*745 ANTENNA_cm_inst\.cc_inst\.aoi21_1_inst_A2
*746 ANTENNA_cm_inst\.cc_inst\.aoi21_1_inst_B
*747 ANTENNA_cm_inst\.cc_inst\.aoi21_2_inst_A1
*748 ANTENNA_cm_inst\.cc_inst\.aoi21_2_inst_A2
*749 ANTENNA_cm_inst\.cc_inst\.aoi21_2_inst_B
*750 ANTENNA_cm_inst\.cc_inst\.aoi21_4_inst_A1
*751 ANTENNA_cm_inst\.cc_inst\.aoi21_4_inst_A2
*752 ANTENNA_cm_inst\.cc_inst\.aoi21_4_inst_B
*753 ANTENNA_cm_inst\.cc_inst\.aoi221_1_inst_A1
*754 ANTENNA_cm_inst\.cc_inst\.aoi221_1_inst_A2
*755 ANTENNA_cm_inst\.cc_inst\.aoi221_1_inst_B1
*756 ANTENNA_cm_inst\.cc_inst\.aoi221_1_inst_B2
*757 ANTENNA_cm_inst\.cc_inst\.aoi221_1_inst_C
*758 ANTENNA_cm_inst\.cc_inst\.aoi221_2_inst_A1
*759 ANTENNA_cm_inst\.cc_inst\.aoi221_2_inst_A2
*760 ANTENNA_cm_inst\.cc_inst\.aoi221_2_inst_B1
*761 ANTENNA_cm_inst\.cc_inst\.aoi221_2_inst_B2
*762 ANTENNA_cm_inst\.cc_inst\.aoi221_2_inst_C
*763 ANTENNA_cm_inst\.cc_inst\.aoi221_4_inst_A1
*764 ANTENNA_cm_inst\.cc_inst\.aoi221_4_inst_A2
*765 ANTENNA_cm_inst\.cc_inst\.aoi221_4_inst_B1
*766 ANTENNA_cm_inst\.cc_inst\.aoi221_4_inst_B2
*767 ANTENNA_cm_inst\.cc_inst\.aoi221_4_inst_C
*768 ANTENNA_cm_inst\.cc_inst\.aoi222_1_inst_A1
*769 ANTENNA_cm_inst\.cc_inst\.aoi222_1_inst_A2
*770 ANTENNA_cm_inst\.cc_inst\.aoi222_1_inst_B1
*771 ANTENNA_cm_inst\.cc_inst\.aoi222_1_inst_B2
*772 ANTENNA_cm_inst\.cc_inst\.aoi222_1_inst_C1
*773 ANTENNA_cm_inst\.cc_inst\.aoi222_1_inst_C2
*774 ANTENNA_cm_inst\.cc_inst\.aoi222_2_inst_A1
*775 ANTENNA_cm_inst\.cc_inst\.aoi222_2_inst_A2
*776 ANTENNA_cm_inst\.cc_inst\.aoi222_2_inst_B1
*777 ANTENNA_cm_inst\.cc_inst\.aoi222_2_inst_B2
*778 ANTENNA_cm_inst\.cc_inst\.aoi222_2_inst_C1
*779 ANTENNA_cm_inst\.cc_inst\.aoi222_2_inst_C2
*780 ANTENNA_cm_inst\.cc_inst\.aoi222_4_inst_A1
*781 ANTENNA_cm_inst\.cc_inst\.aoi222_4_inst_A2
*782 ANTENNA_cm_inst\.cc_inst\.aoi222_4_inst_B1
*783 ANTENNA_cm_inst\.cc_inst\.aoi222_4_inst_B2
*784 ANTENNA_cm_inst\.cc_inst\.aoi222_4_inst_C1
*785 ANTENNA_cm_inst\.cc_inst\.aoi222_4_inst_C2
*786 ANTENNA_cm_inst\.cc_inst\.aoi22_1_inst_A1
*787 ANTENNA_cm_inst\.cc_inst\.aoi22_1_inst_A2
*788 ANTENNA_cm_inst\.cc_inst\.aoi22_1_inst_B1
*789 ANTENNA_cm_inst\.cc_inst\.aoi22_1_inst_B2
*790 ANTENNA_cm_inst\.cc_inst\.aoi22_2_inst_A1
*791 ANTENNA_cm_inst\.cc_inst\.aoi22_2_inst_A2
*792 ANTENNA_cm_inst\.cc_inst\.aoi22_2_inst_B1
*793 ANTENNA_cm_inst\.cc_inst\.aoi22_2_inst_B2
*794 ANTENNA_cm_inst\.cc_inst\.aoi22_4_inst_A1
*795 ANTENNA_cm_inst\.cc_inst\.aoi22_4_inst_A2
*796 ANTENNA_cm_inst\.cc_inst\.aoi22_4_inst_B1
*797 ANTENNA_cm_inst\.cc_inst\.aoi22_4_inst_B2
*798 ANTENNA_cm_inst\.cc_inst\.buf_12_inst_I
*799 ANTENNA_cm_inst\.cc_inst\.buf_16_inst_I
*800 ANTENNA_cm_inst\.cc_inst\.buf_1_inst_I
*801 ANTENNA_cm_inst\.cc_inst\.buf_20_inst_I
*802 ANTENNA_cm_inst\.cc_inst\.buf_2_inst_I
*803 ANTENNA_cm_inst\.cc_inst\.buf_3_inst_I
*804 ANTENNA_cm_inst\.cc_inst\.buf_4_inst_I
*805 ANTENNA_cm_inst\.cc_inst\.buf_8_inst_I
*806 ANTENNA_cm_inst\.cc_inst\.bufz_12_inst_EN
*807 ANTENNA_cm_inst\.cc_inst\.bufz_12_inst_I
*808 ANTENNA_cm_inst\.cc_inst\.bufz_16_inst_EN
*809 ANTENNA_cm_inst\.cc_inst\.bufz_16_inst_I
*810 ANTENNA_cm_inst\.cc_inst\.bufz_1_inst_EN
*811 ANTENNA_cm_inst\.cc_inst\.bufz_1_inst_I
*812 ANTENNA_cm_inst\.cc_inst\.bufz_2_inst_EN
*813 ANTENNA_cm_inst\.cc_inst\.bufz_2_inst_I
*814 ANTENNA_cm_inst\.cc_inst\.bufz_3_inst_EN
*815 ANTENNA_cm_inst\.cc_inst\.bufz_3_inst_I
*816 ANTENNA_cm_inst\.cc_inst\.bufz_4_inst_EN
*817 ANTENNA_cm_inst\.cc_inst\.bufz_4_inst_I
*818 ANTENNA_cm_inst\.cc_inst\.bufz_8_inst_EN
*819 ANTENNA_cm_inst\.cc_inst\.bufz_8_inst_I
*820 ANTENNA_cm_inst\.cc_inst\.clkbuf_12_inst_I
*821 ANTENNA_cm_inst\.cc_inst\.clkbuf_16_inst_I
*822 ANTENNA_cm_inst\.cc_inst\.clkbuf_1_inst_I
*823 ANTENNA_cm_inst\.cc_inst\.clkbuf_20_inst_I
*824 ANTENNA_cm_inst\.cc_inst\.clkbuf_2_inst_I
*825 ANTENNA_cm_inst\.cc_inst\.clkbuf_3_inst_I
*826 ANTENNA_cm_inst\.cc_inst\.clkbuf_4_inst_I
*827 ANTENNA_cm_inst\.cc_inst\.clkbuf_8_inst_I
*828 ANTENNA_cm_inst\.cc_inst\.clkinv_12_inst_I
*829 ANTENNA_cm_inst\.cc_inst\.clkinv_16_inst_I
*830 ANTENNA_cm_inst\.cc_inst\.clkinv_1_inst_I
*831 ANTENNA_cm_inst\.cc_inst\.clkinv_20_inst_I
*832 ANTENNA_cm_inst\.cc_inst\.clkinv_2_inst_I
*833 ANTENNA_cm_inst\.cc_inst\.clkinv_3_inst_I
*834 ANTENNA_cm_inst\.cc_inst\.clkinv_4_inst_I
*835 ANTENNA_cm_inst\.cc_inst\.clkinv_8_inst_I
*836 ANTENNA_cm_inst\.cc_inst\.dffnq_1_inst_CLKN
*837 ANTENNA_cm_inst\.cc_inst\.dffnq_1_inst_D
*838 ANTENNA_cm_inst\.cc_inst\.dffnq_2_inst_CLKN
*839 ANTENNA_cm_inst\.cc_inst\.dffnq_2_inst_D
*840 ANTENNA_cm_inst\.cc_inst\.dffnq_4_inst_CLKN
*841 ANTENNA_cm_inst\.cc_inst\.dffnq_4_inst_D
*842 ANTENNA_cm_inst\.cc_inst\.dffnrnq_1_inst_CLKN
*843 ANTENNA_cm_inst\.cc_inst\.dffnrnq_1_inst_D
*844 ANTENNA_cm_inst\.cc_inst\.dffnrnq_1_inst_RN
*845 ANTENNA_cm_inst\.cc_inst\.dffnrnq_2_inst_CLKN
*846 ANTENNA_cm_inst\.cc_inst\.dffnrnq_2_inst_D
*847 ANTENNA_cm_inst\.cc_inst\.dffnrnq_2_inst_RN
*848 ANTENNA_cm_inst\.cc_inst\.dffnrnq_4_inst_CLKN
*849 ANTENNA_cm_inst\.cc_inst\.dffnrnq_4_inst_D
*850 ANTENNA_cm_inst\.cc_inst\.dffnrnq_4_inst_RN
*851 ANTENNA_cm_inst\.cc_inst\.dffnrsnq_1_inst_CLKN
*852 ANTENNA_cm_inst\.cc_inst\.dffnrsnq_1_inst_D
*853 ANTENNA_cm_inst\.cc_inst\.dffnrsnq_1_inst_RN
*854 ANTENNA_cm_inst\.cc_inst\.dffnrsnq_1_inst_SETN
*855 ANTENNA_cm_inst\.cc_inst\.dffnrsnq_2_inst_CLKN
*856 ANTENNA_cm_inst\.cc_inst\.dffnrsnq_2_inst_D
*857 ANTENNA_cm_inst\.cc_inst\.dffnrsnq_2_inst_RN
*858 ANTENNA_cm_inst\.cc_inst\.dffnrsnq_2_inst_SETN
*859 ANTENNA_cm_inst\.cc_inst\.dffnrsnq_4_inst_CLKN
*860 ANTENNA_cm_inst\.cc_inst\.dffnrsnq_4_inst_D
*861 ANTENNA_cm_inst\.cc_inst\.dffnrsnq_4_inst_RN
*862 ANTENNA_cm_inst\.cc_inst\.dffnrsnq_4_inst_SETN
*863 ANTENNA_cm_inst\.cc_inst\.dffnsnq_1_inst_CLKN
*864 ANTENNA_cm_inst\.cc_inst\.dffnsnq_1_inst_D
*865 ANTENNA_cm_inst\.cc_inst\.dffnsnq_1_inst_SETN
*866 ANTENNA_cm_inst\.cc_inst\.dffnsnq_2_inst_CLKN
*867 ANTENNA_cm_inst\.cc_inst\.dffnsnq_2_inst_D
*868 ANTENNA_cm_inst\.cc_inst\.dffnsnq_2_inst_SETN
*869 ANTENNA_cm_inst\.cc_inst\.dffnsnq_4_inst_CLKN
*870 ANTENNA_cm_inst\.cc_inst\.dffnsnq_4_inst_D
*871 ANTENNA_cm_inst\.cc_inst\.dffnsnq_4_inst_SETN
*872 ANTENNA_cm_inst\.cc_inst\.dffq_1_inst_CLK
*873 ANTENNA_cm_inst\.cc_inst\.dffq_1_inst_D
*874 ANTENNA_cm_inst\.cc_inst\.dffq_2_inst_CLK
*875 ANTENNA_cm_inst\.cc_inst\.dffq_2_inst_D
*876 ANTENNA_cm_inst\.cc_inst\.dffq_4_inst_CLK
*877 ANTENNA_cm_inst\.cc_inst\.dffq_4_inst_D
*878 ANTENNA_cm_inst\.cc_inst\.dffrnq_1_inst_CLK
*879 ANTENNA_cm_inst\.cc_inst\.dffrnq_1_inst_D
*880 ANTENNA_cm_inst\.cc_inst\.dffrnq_1_inst_RN
*881 ANTENNA_cm_inst\.cc_inst\.dffrnq_2_inst_CLK
*882 ANTENNA_cm_inst\.cc_inst\.dffrnq_2_inst_D
*883 ANTENNA_cm_inst\.cc_inst\.dffrnq_2_inst_RN
*884 ANTENNA_cm_inst\.cc_inst\.dffrnq_4_inst_CLK
*885 ANTENNA_cm_inst\.cc_inst\.dffrnq_4_inst_D
*886 ANTENNA_cm_inst\.cc_inst\.dffrnq_4_inst_RN
*887 ANTENNA_cm_inst\.cc_inst\.dffrsnq_1_inst_CLK
*888 ANTENNA_cm_inst\.cc_inst\.dffrsnq_1_inst_D
*889 ANTENNA_cm_inst\.cc_inst\.dffrsnq_1_inst_RN
*890 ANTENNA_cm_inst\.cc_inst\.dffrsnq_1_inst_SETN
*891 ANTENNA_cm_inst\.cc_inst\.dffrsnq_2_inst_CLK
*892 ANTENNA_cm_inst\.cc_inst\.dffrsnq_2_inst_D
*893 ANTENNA_cm_inst\.cc_inst\.dffrsnq_2_inst_RN
*894 ANTENNA_cm_inst\.cc_inst\.dffrsnq_2_inst_SETN
*895 ANTENNA_cm_inst\.cc_inst\.dffrsnq_4_inst_CLK
*896 ANTENNA_cm_inst\.cc_inst\.dffrsnq_4_inst_D
*897 ANTENNA_cm_inst\.cc_inst\.dffrsnq_4_inst_RN
*898 ANTENNA_cm_inst\.cc_inst\.dffrsnq_4_inst_SETN
*899 ANTENNA_cm_inst\.cc_inst\.dffsnq_1_inst_CLK
*900 ANTENNA_cm_inst\.cc_inst\.dffsnq_1_inst_D
*901 ANTENNA_cm_inst\.cc_inst\.dffsnq_1_inst_SETN
*902 ANTENNA_cm_inst\.cc_inst\.dffsnq_2_inst_CLK
*903 ANTENNA_cm_inst\.cc_inst\.dffsnq_2_inst_D
*904 ANTENNA_cm_inst\.cc_inst\.dffsnq_2_inst_SETN
*905 ANTENNA_cm_inst\.cc_inst\.dffsnq_4_inst_CLK
*906 ANTENNA_cm_inst\.cc_inst\.dffsnq_4_inst_D
*907 ANTENNA_cm_inst\.cc_inst\.dffsnq_4_inst_SETN
*908 ANTENNA_cm_inst\.cc_inst\.dlya_1_inst_I
*909 ANTENNA_cm_inst\.cc_inst\.dlya_2_inst_I
*910 ANTENNA_cm_inst\.cc_inst\.dlya_4_inst_I
*911 ANTENNA_cm_inst\.cc_inst\.dlyb_1_inst_I
*912 ANTENNA_cm_inst\.cc_inst\.dlyb_2_inst_I
*913 ANTENNA_cm_inst\.cc_inst\.dlyb_4_inst_I
*914 ANTENNA_cm_inst\.cc_inst\.dlyc_1_inst_I
*915 ANTENNA_cm_inst\.cc_inst\.dlyc_2_inst_I
*916 ANTENNA_cm_inst\.cc_inst\.dlyc_4_inst_I
*917 ANTENNA_cm_inst\.cc_inst\.dlyd_1_inst_I
*918 ANTENNA_cm_inst\.cc_inst\.dlyd_2_inst_I
*919 ANTENNA_cm_inst\.cc_inst\.dlyd_4_inst_I
*920 ANTENNA_cm_inst\.cc_inst\.icgtn_1_inst_CLKN
*921 ANTENNA_cm_inst\.cc_inst\.icgtn_1_inst_E
*922 ANTENNA_cm_inst\.cc_inst\.icgtn_1_inst_TE
*923 ANTENNA_cm_inst\.cc_inst\.icgtn_2_inst_CLKN
*924 ANTENNA_cm_inst\.cc_inst\.icgtn_2_inst_E
*925 ANTENNA_cm_inst\.cc_inst\.icgtn_2_inst_TE
*926 ANTENNA_cm_inst\.cc_inst\.icgtn_4_inst_CLKN
*927 ANTENNA_cm_inst\.cc_inst\.icgtn_4_inst_E
*928 ANTENNA_cm_inst\.cc_inst\.icgtn_4_inst_TE
*929 ANTENNA_cm_inst\.cc_inst\.icgtp_2_inst_CLK
*930 ANTENNA_cm_inst\.cc_inst\.icgtp_2_inst_E
*931 ANTENNA_cm_inst\.cc_inst\.icgtp_2_inst_TE
*932 ANTENNA_cm_inst\.cc_inst\.icgtp_4_inst_CLK
*933 ANTENNA_cm_inst\.cc_inst\.icgtp_4_inst_E
*934 ANTENNA_cm_inst\.cc_inst\.icgtp_4_inst_TE
*935 ANTENNA_cm_inst\.cc_inst\.inv_12_inst_I
*936 ANTENNA_cm_inst\.cc_inst\.inv_16_inst_I
*937 ANTENNA_cm_inst\.cc_inst\.inv_1_inst_I
*938 ANTENNA_cm_inst\.cc_inst\.inv_20_inst_I
*939 ANTENNA_cm_inst\.cc_inst\.inv_2_inst_I
*940 ANTENNA_cm_inst\.cc_inst\.inv_3_inst_I
*941 ANTENNA_cm_inst\.cc_inst\.inv_4_inst_I
*942 ANTENNA_cm_inst\.cc_inst\.inv_8_inst_I
*943 ANTENNA_cm_inst\.cc_inst\.invz_12_inst_EN
*944 ANTENNA_cm_inst\.cc_inst\.invz_12_inst_I
*945 ANTENNA_cm_inst\.cc_inst\.invz_1_inst_EN
*946 ANTENNA_cm_inst\.cc_inst\.invz_1_inst_I
*947 ANTENNA_cm_inst\.cc_inst\.invz_2_inst_EN
*948 ANTENNA_cm_inst\.cc_inst\.invz_2_inst_I
*949 ANTENNA_cm_inst\.cc_inst\.invz_3_inst_EN
*950 ANTENNA_cm_inst\.cc_inst\.invz_3_inst_I
*951 ANTENNA_cm_inst\.cc_inst\.invz_4_inst_EN
*952 ANTENNA_cm_inst\.cc_inst\.invz_4_inst_I
*953 ANTENNA_cm_inst\.cc_inst\.invz_8_inst_EN
*954 ANTENNA_cm_inst\.cc_inst\.invz_8_inst_I
*955 ANTENNA_cm_inst\.cc_inst\.latq_1_inst_D
*956 ANTENNA_cm_inst\.cc_inst\.latq_1_inst_E
*957 ANTENNA_cm_inst\.cc_inst\.latq_2_inst_D
*958 ANTENNA_cm_inst\.cc_inst\.latq_2_inst_E
*959 ANTENNA_cm_inst\.cc_inst\.latq_4_inst_D
*960 ANTENNA_cm_inst\.cc_inst\.latq_4_inst_E
*961 ANTENNA_cm_inst\.cc_inst\.latrnq_1_inst_D
*962 ANTENNA_cm_inst\.cc_inst\.latrnq_1_inst_E
*963 ANTENNA_cm_inst\.cc_inst\.latrnq_1_inst_RN