*SPEF "ieee 1481-1999"
*DESIGN "output_mux"
*DATE "11:11:11 Fri 11 11, 1111"
*VENDOR "OpenRCX"
*PROGRAM "Parallel Extraction"
*VERSION "1.0"
*DESIGN_FLOW "NAME_SCOPE LOCAL" "PIN_CAP NONE"
*DIVIDER /
*DELIMITER :
*BUS_DELIMITER []
*T_UNIT 1 NS
*C_UNIT 1 PF
*R_UNIT 1 OHM
*L_UNIT 1 HENRY

*NAME_MAP
*1 out[0]
*2 out[10]
*3 out[11]
*4 out[1]
*5 out[2]
*6 out[3]
*7 out[4]
*8 out[5]
*9 out[6]
*10 out[7]
*11 out[8]
*12 out[9]
*13 proj_out[0]
*14 proj_out[10]
*15 proj_out[11]
*16 proj_out[12]
*17 proj_out[13]
*18 proj_out[14]
*19 proj_out[15]
*20 proj_out[16]
*21 proj_out[17]
*22 proj_out[18]
*23 proj_out[19]
*24 proj_out[1]
*25 proj_out[20]
*26 proj_out[21]
*27 proj_out[22]
*28 proj_out[23]
*29 proj_out[24]
*30 proj_out[25]
*31 proj_out[26]
*32 proj_out[27]
*33 proj_out[28]
*34 proj_out[29]
*35 proj_out[2]
*36 proj_out[30]
*37 proj_out[31]
*38 proj_out[32]
*39 proj_out[33]
*40 proj_out[34]
*41 proj_out[35]
*42 proj_out[36]
*43 proj_out[37]
*44 proj_out[38]
*45 proj_out[39]
*46 proj_out[3]
*47 proj_out[40]
*48 proj_out[41]
*49 proj_out[42]
*50 proj_out[43]
*51 proj_out[44]
*52 proj_out[45]
*53 proj_out[46]
*54 proj_out[47]
*55 proj_out[4]
*56 proj_out[5]
*57 proj_out[6]
*58 proj_out[7]
*59 proj_out[8]
*60 proj_out[9]
*61 sel[0]
*62 sel[1]
*65 _00_
*66 _01_
*67 _02_
*68 _03_
*69 _04_
*70 _05_
*71 _06_
*72 _07_
*73 _08_
*74 _09_
*75 _10_
*76 _11_
*77 _12_
*78 _13_
*79 _14_
*80 _15_
*81 _16_
*82 _17_
*83 net1
*84 net10
*85 net11
*86 net12
*87 net13
*88 net14
*89 net15
*90 net16
*91 net17
*92 net18
*93 net19
*94 net2
*95 net20
*96 net21
*97 net22
*98 net23
*99 net24
*100 net25
*101 net26
*102 net27
*103 net28
*104 net29
*105 net3
*106 net30
*107 net31
*108 net32
*109 net33
*110 net34
*111 net35
*112 net36
*113 net37
*114 net38
*115 net39
*116 net4
*117 net40
*118 net41
*119 net42
*120 net43
*121 net44
*122 net45
*123 net46
*124 net47
*125 net48
*126 net49
*127 net5
*128 net50
*129 net51
*130 net52
*131 net53
*132 net54
*133 net55
*134 net56
*135 net57
*136 net58
*137 net59
*138 net6
*139 net60
*140 net61
*141 net62
*142 net7
*143 net8
*144 net9
*145 ANTENNA__18__I
*146 ANTENNA__20__I2
*147 ANTENNA__20__I3
*148 ANTENNA__28__I
*149 ANTENNA__38__I
*150 ANTENNA__40__I0
*151 ANTENNA__44__I2
*152 ANTENNA_input10_I
*153 ANTENNA_input11_I
*154 ANTENNA_input12_I
*155 ANTENNA_input13_I
*156 ANTENNA_input14_I
*157 ANTENNA_input15_I
*158 ANTENNA_input16_I
*159 ANTENNA_input17_I
*160 ANTENNA_input18_I
*161 ANTENNA_input19_I
*162 ANTENNA_input1_I
*163 ANTENNA_input20_I
*164 ANTENNA_input21_I
*165 ANTENNA_input22_I
*166 ANTENNA_input23_I
*167 ANTENNA_input24_I
*168 ANTENNA_input25_I
*169 ANTENNA_input26_I
*170 ANTENNA_input27_I
*171 ANTENNA_input28_I
*172 ANTENNA_input29_I
*173 ANTENNA_input2_I
*174 ANTENNA_input30_I
*175 ANTENNA_input31_I
*176 ANTENNA_input32_I
*177 ANTENNA_input33_I
*178 ANTENNA_input34_I
*179 ANTENNA_input35_I
*180 ANTENNA_input36_I
*181 ANTENNA_input37_I
*182 ANTENNA_input38_I
*183 ANTENNA_input39_I
*184 ANTENNA_input3_I
*185 ANTENNA_input40_I
*186 ANTENNA_input41_I
*187 ANTENNA_input42_I
*188 ANTENNA_input43_I
*189 ANTENNA_input44_I
*190 ANTENNA_input45_I
*191 ANTENNA_input46_I
*192 ANTENNA_input47_I
*193 ANTENNA_input48_I
*194 ANTENNA_input49_I
*195 ANTENNA_input4_I
*196 ANTENNA_input50_I
*197 ANTENNA_input5_I
*198 ANTENNA_input6_I
*199 ANTENNA_input7_I
*200 ANTENNA_input8_I
*201 ANTENNA_input9_I
*202 ANTENNA_output51_I
*203 ANTENNA_output61_I
*204 FILLER_0_0_138
*205 FILLER_0_0_172
*206 FILLER_0_0_174
*207 FILLER_0_0_199
*208 FILLER_0_0_2
*209 FILLER_0_0_203
*210 FILLER_0_0_232
*211 FILLER_0_0_236
*212 FILLER_0_0_240
*213 FILLER_0_0_274
*214 FILLER_0_0_308
*215 FILLER_0_0_324
*216 FILLER_0_0_328
*217 FILLER_0_0_330
*218 FILLER_0_0_36
*219 FILLER_0_0_70
*220 FILLER_0_10_101
*221 FILLER_0_10_107
*222 FILLER_0_10_171
*223 FILLER_0_10_177
*224 FILLER_0_10_2
*225 FILLER_0_10_241
*226 FILLER_0_10_247
*227 FILLER_0_10_311
*228 FILLER_0_10_317
*229 FILLER_0_10_325
*230 FILLER_0_10_329
*231 FILLER_0_10_34
*232 FILLER_0_10_37
*233 FILLER_0_11_136
*234 FILLER_0_11_142
*235 FILLER_0_11_2
*236 FILLER_0_11_206
*237 FILLER_0_11_212
*238 FILLER_0_11_276
*239 FILLER_0_11_282
*240 FILLER_0_11_314
*241 FILLER_0_11_330
*242 FILLER_0_11_66
*243 FILLER_0_11_72
*244 FILLER_0_12_101
*245 FILLER_0_12_107
*246 FILLER_0_12_171
*247 FILLER_0_12_177
*248 FILLER_0_12_2
*249 FILLER_0_12_241
*250 FILLER_0_12_247
*251 FILLER_0_12_311
*252 FILLER_0_12_317
*253 FILLER_0_12_325
*254 FILLER_0_12_329
*255 FILLER_0_12_34
*256 FILLER_0_12_37
*257 FILLER_0_13_136
*258 FILLER_0_13_142
*259 FILLER_0_13_2
*260 FILLER_0_13_206
*261 FILLER_0_13_212
*262 FILLER_0_13_276
*263 FILLER_0_13_282
*264 FILLER_0_13_298
*265 FILLER_0_13_302
*266 FILLER_0_13_66
*267 FILLER_0_13_72
*268 FILLER_0_14_101
*269 FILLER_0_14_107
*270 FILLER_0_14_123
*271 FILLER_0_14_137
*272 FILLER_0_14_141
*273 FILLER_0_14_177
*274 FILLER_0_14_2
*275 FILLER_0_14_241
*276 FILLER_0_14_247
*277 FILLER_0_14_311
*278 FILLER_0_14_317
*279 FILLER_0_14_321
*280 FILLER_0_14_34
*281 FILLER_0_14_37
*282 FILLER_0_15_104
*283 FILLER_0_15_142
*284 FILLER_0_15_182
*285 FILLER_0_15_198
*286 FILLER_0_15_2
*287 FILLER_0_15_206
*288 FILLER_0_15_212
*289 FILLER_0_15_276
*290 FILLER_0_15_282
*291 FILLER_0_15_298
*292 FILLER_0_15_302
*293 FILLER_0_15_304
*294 FILLER_0_15_6
*295 FILLER_0_15_72
*296 FILLER_0_16_101
*297 FILLER_0_16_107
*298 FILLER_0_16_115
*299 FILLER_0_16_119
*300 FILLER_0_16_12
*301 FILLER_0_16_121
*302 FILLER_0_16_154
*303 FILLER_0_16_158
*304 FILLER_0_16_172
*305 FILLER_0_16_174
*306 FILLER_0_16_177
*307 FILLER_0_16_241
*308 FILLER_0_16_247
*309 FILLER_0_16_28
*310 FILLER_0_16_311
*311 FILLER_0_16_317
*312 FILLER_0_16_32
*313 FILLER_0_16_325
*314 FILLER_0_16_34
*315 FILLER_0_16_37
*316 FILLER_0_16_8
*317 FILLER_0_17_104
*318 FILLER_0_17_120
*319 FILLER_0_17_128
*320 FILLER_0_17_135
*321 FILLER_0_17_139
*322 FILLER_0_17_14
*323 FILLER_0_17_142
*324 FILLER_0_17_18
*325 FILLER_0_17_206
*326 FILLER_0_17_212
*327 FILLER_0_17_276
*328 FILLER_0_17_282
*329 FILLER_0_17_314
*330 FILLER_0_17_322
*331 FILLER_0_17_50
*332 FILLER_0_17_66
*333 FILLER_0_17_72
*334 FILLER_0_18_101
*335 FILLER_0_18_107
*336 FILLER_0_18_139
*337 FILLER_0_18_141
*338 FILLER_0_18_152
*339 FILLER_0_18_162
*340 FILLER_0_18_170
*341 FILLER_0_18_174
*342 FILLER_0_18_209
*343 FILLER_0_18_241
*344 FILLER_0_18_247
*345 FILLER_0_18_28
*346 FILLER_0_18_311
*347 FILLER_0_18_317
*348 FILLER_0_18_32
*349 FILLER_0_18_34
*350 FILLER_0_18_37
*351 FILLER_0_19_12
*352 FILLER_0_19_136
*353 FILLER_0_19_156
*354 FILLER_0_19_172
*355 FILLER_0_19_208
*356 FILLER_0_19_212
*357 FILLER_0_19_216
*358 FILLER_0_19_220
*359 FILLER_0_19_252
*360 FILLER_0_19_268
*361 FILLER_0_19_276
*362 FILLER_0_19_282
*363 FILLER_0_19_314
*364 FILLER_0_19_322
*365 FILLER_0_19_44
*366 FILLER_0_19_60
*367 FILLER_0_19_68
*368 FILLER_0_19_72
*369 FILLER_0_19_8
*370 FILLER_0_1_100
*371 FILLER_0_1_102
*372 FILLER_0_1_105
*373 FILLER_0_1_139
*374 FILLER_0_1_142
*375 FILLER_0_1_148
*376 FILLER_0_1_154
*377 FILLER_0_1_160
*378 FILLER_0_1_166
*379 FILLER_0_1_168
*380 FILLER_0_1_171
*381 FILLER_0_1_175
*382 FILLER_0_1_181
*383 FILLER_0_1_187
*384 FILLER_0_1_193
*385 FILLER_0_1_2
*386 FILLER_0_1_209
*387 FILLER_0_1_238
*388 FILLER_0_1_270
*389 FILLER_0_1_278
*390 FILLER_0_1_282
*391 FILLER_0_1_314
*392 FILLER_0_1_330
*393 FILLER_0_1_66
*394 FILLER_0_1_72
*395 FILLER_0_1_88
*396 FILLER_0_1_96
*397 FILLER_0_20_101
*398 FILLER_0_20_107
*399 FILLER_0_20_12
*400 FILLER_0_20_123
*401 FILLER_0_20_173
*402 FILLER_0_20_177
*403 FILLER_0_20_185
*404 FILLER_0_20_198
*405 FILLER_0_20_230
*406 FILLER_0_20_238
*407 FILLER_0_20_242
*408 FILLER_0_20_244
*409 FILLER_0_20_247
*410 FILLER_0_20_28
*411 FILLER_0_20_311
*412 FILLER_0_20_317
*413 FILLER_0_20_32
*414 FILLER_0_20_321
*415 FILLER_0_20_34
*416 FILLER_0_20_37
*417 FILLER_0_20_8
*418 FILLER_0_21_104
*419 FILLER_0_21_120
*420 FILLER_0_21_128
*421 FILLER_0_21_132
*422 FILLER_0_21_148
*423 FILLER_0_21_156
*424 FILLER_0_21_159
*425 FILLER_0_21_191
*426 FILLER_0_21_207
*427 FILLER_0_21_209
*428 FILLER_0_21_212
*429 FILLER_0_21_276
*430 FILLER_0_21_28
*431 FILLER_0_21_282
*432 FILLER_0_21_314
*433 FILLER_0_21_318
*434 FILLER_0_21_321
*435 FILLER_0_21_60
*436 FILLER_0_21_68
*437 FILLER_0_21_72
*438 FILLER_0_22_101
*439 FILLER_0_22_107
*440 FILLER_0_22_12
*441 FILLER_0_22_123
*442 FILLER_0_22_159
*443 FILLER_0_22_209
*444 FILLER_0_22_241
*445 FILLER_0_22_247
*446 FILLER_0_22_28
*447 FILLER_0_22_311
*448 FILLER_0_22_317
*449 FILLER_0_22_32
*450 FILLER_0_22_34
*451 FILLER_0_22_37
*452 FILLER_0_22_8
*453 FILLER_0_23_12
*454 FILLER_0_23_136
*455 FILLER_0_23_142
*456 FILLER_0_23_16
*457 FILLER_0_23_206
*458 FILLER_0_23_212
*459 FILLER_0_23_276
*460 FILLER_0_23_282
*461 FILLER_0_23_298
*462 FILLER_0_23_302
*463 FILLER_0_23_304
*464 FILLER_0_23_48
*465 FILLER_0_23_64
*466 FILLER_0_23_68
*467 FILLER_0_23_72
*468 FILLER_0_23_8
*469 FILLER_0_24_101
*470 FILLER_0_24_107
*471 FILLER_0_24_123
*472 FILLER_0_24_127
*473 FILLER_0_24_129
*474 FILLER_0_24_14
*475 FILLER_0_24_162
*476 FILLER_0_24_170
*477 FILLER_0_24_174
*478 FILLER_0_24_177
*479 FILLER_0_24_18
*480 FILLER_0_24_190
*481 FILLER_0_24_222
*482 FILLER_0_24_238
*483 FILLER_0_24_242
*484 FILLER_0_24_244
*485 FILLER_0_24_247
*486 FILLER_0_24_311
*487 FILLER_0_24_317
*488 FILLER_0_24_321
*489 FILLER_0_24_34
*490 FILLER_0_24_37
*491 FILLER_0_25_12
*492 FILLER_0_25_136
*493 FILLER_0_25_148
*494 FILLER_0_25_180
*495 FILLER_0_25_196
*496 FILLER_0_25_204
*497 FILLER_0_25_208
*498 FILLER_0_25_212
*499 FILLER_0_25_276
*500 FILLER_0_25_282
*501 FILLER_0_25_314
*502 FILLER_0_25_322
*503 FILLER_0_25_44
*504 FILLER_0_25_60
*505 FILLER_0_25_68
*506 FILLER_0_25_72
*507 FILLER_0_25_8
*508 FILLER_0_26_101
*509 FILLER_0_26_107
*510 FILLER_0_26_12
*511 FILLER_0_26_123
*512 FILLER_0_26_127
*513 FILLER_0_26_129
*514 FILLER_0_26_162
*515 FILLER_0_26_170
*516 FILLER_0_26_174
*517 FILLER_0_26_177
*518 FILLER_0_26_241
*519 FILLER_0_26_247
*520 FILLER_0_26_28
*521 FILLER_0_26_311
*522 FILLER_0_26_317
*523 FILLER_0_26_32
*524 FILLER_0_26_321
*525 FILLER_0_26_34
*526 FILLER_0_26_37
*527 FILLER_0_26_8
*528 FILLER_0_27_12
*529 FILLER_0_27_136
*530 FILLER_0_27_148
*531 FILLER_0_27_180
*532 FILLER_0_27_196
*533 FILLER_0_27_204
*534 FILLER_0_27_208
*535 FILLER_0_27_212
*536 FILLER_0_27_276
*537 FILLER_0_27_282
*538 FILLER_0_27_298
*539 FILLER_0_27_302
*540 FILLER_0_27_304
*541 FILLER_0_27_44
*542 FILLER_0_27_60
*543 FILLER_0_27_68
*544 FILLER_0_27_72
*545 FILLER_0_27_8
*546 FILLER_0_28_101
*547 FILLER_0_28_107
*548 FILLER_0_28_12
*549 FILLER_0_28_171
*550 FILLER_0_28_177
*551 FILLER_0_28_241
*552 FILLER_0_28_247
*553 FILLER_0_28_28
*554 FILLER_0_28_311
*555 FILLER_0_28_317
*556 FILLER_0_28_32
*557 FILLER_0_28_325
*558 FILLER_0_28_329
*559 FILLER_0_28_34
*560 FILLER_0_28_37
*561 FILLER_0_28_8
*562 FILLER_0_29_136
*563 FILLER_0_29_142
*564 FILLER_0_29_206
*565 FILLER_0_29_212
*566 FILLER_0_29_276
*567 FILLER_0_29_28
*568 FILLER_0_29_282
*569 FILLER_0_29_314
*570 FILLER_0_29_32
*571 FILLER_0_29_330
*572 FILLER_0_29_64
*573 FILLER_0_29_68
*574 FILLER_0_29_72
*575 FILLER_0_2_101
*576 FILLER_0_2_107
*577 FILLER_0_2_115
*578 FILLER_0_2_121
*579 FILLER_0_2_127
*580 FILLER_0_2_133
*581 FILLER_0_2_135
*582 FILLER_0_2_138
*583 FILLER_0_2_170
*584 FILLER_0_2_174
*585 FILLER_0_2_177
*586 FILLER_0_2_2
*587 FILLER_0_2_241
*588 FILLER_0_2_247
*589 FILLER_0_2_311
*590 FILLER_0_2_317
*591 FILLER_0_2_325
*592 FILLER_0_2_329
*593 FILLER_0_2_34
*594 FILLER_0_2_37
*595 FILLER_0_30_101
*596 FILLER_0_30_107
*597 FILLER_0_30_171
*598 FILLER_0_30_177
*599 FILLER_0_30_2
*600 FILLER_0_30_241
*601 FILLER_0_30_247
*602 FILLER_0_30_311
*603 FILLER_0_30_317
*604 FILLER_0_30_325
*605 FILLER_0_30_329
*606 FILLER_0_30_34
*607 FILLER_0_30_37
*608 FILLER_0_31_136
*609 FILLER_0_31_142
*610 FILLER_0_31_2
*611 FILLER_0_31_206
*612 FILLER_0_31_212
*613 FILLER_0_31_276
*614 FILLER_0_31_282
*615 FILLER_0_31_314
*616 FILLER_0_31_330
*617 FILLER_0_31_66
*618 FILLER_0_31_72
*619 FILLER_0_32_101
*620 FILLER_0_32_107
*621 FILLER_0_32_171
*622 FILLER_0_32_177
*623 FILLER_0_32_2
*624 FILLER_0_32_241
*625 FILLER_0_32_247
*626 FILLER_0_32_311
*627 FILLER_0_32_317
*628 FILLER_0_32_325
*629 FILLER_0_32_329
*630 FILLER_0_32_34
*631 FILLER_0_32_37
*632 FILLER_0_33_136
*633 FILLER_0_33_142
*634 FILLER_0_33_2
*635 FILLER_0_33_206
*636 FILLER_0_33_212
*637 FILLER_0_33_276
*638 FILLER_0_33_282
*639 FILLER_0_33_314
*640 FILLER_0_33_330
*641 FILLER_0_33_66
*642 FILLER_0_33_72
*643 FILLER_0_34_101
*644 FILLER_0_34_107
*645 FILLER_0_34_171
*646 FILLER_0_34_177
*647 FILLER_0_34_2
*648 FILLER_0_34_241
*649 FILLER_0_34_247
*650 FILLER_0_34_311
*651 FILLER_0_34_317
*652 FILLER_0_34_325
*653 FILLER_0_34_329
*654 FILLER_0_34_34
*655 FILLER_0_34_37
*656 FILLER_0_35_136
*657 FILLER_0_35_142
*658 FILLER_0_35_2
*659 FILLER_0_35_206
*660 FILLER_0_35_212
*661 FILLER_0_35_276
*662 FILLER_0_35_282
*663 FILLER_0_35_314
*664 FILLER_0_35_330
*665 FILLER_0_35_66
*666 FILLER_0_35_72
*667 FILLER_0_36_101
*668 FILLER_0_36_107
*669 FILLER_0_36_171
*670 FILLER_0_36_177
*671 FILLER_0_36_2
*672 FILLER_0_36_241
*673 FILLER_0_36_247
*674 FILLER_0_36_311
*675 FILLER_0_36_317
*676 FILLER_0_36_325
*677 FILLER_0_36_329
*678 FILLER_0_36_34
*679 FILLER_0_36_37
*680 FILLER_0_37_136
*681 FILLER_0_37_142
*682 FILLER_0_37_2
*683 FILLER_0_37_206
*684 FILLER_0_37_212
*685 FILLER_0_37_276
*686 FILLER_0_37_282
*687 FILLER_0_37_314
*688 FILLER_0_37_330
*689 FILLER_0_37_66
*690 FILLER_0_37_72
*691 FILLER_0_38_101
*692 FILLER_0_38_107
*693 FILLER_0_38_171
*694 FILLER_0_38_177
*695 FILLER_0_38_2
*696 FILLER_0_38_241
*697 FILLER_0_38_247
*698 FILLER_0_38_311
*699 FILLER_0_38_317
*700 FILLER_0_38_325
*701 FILLER_0_38_329
*702 FILLER_0_38_34
*703 FILLER_0_38_37
*704 FILLER_0_39_136
*705 FILLER_0_39_142
*706 FILLER_0_39_2
*707 FILLER_0_39_206
*708 FILLER_0_39_212
*709 FILLER_0_39_276
*710 FILLER_0_39_282
*711 FILLER_0_39_314
*712 FILLER_0_39_330
*713 FILLER_0_39_66
*714 FILLER_0_39_72
*715 FILLER_0_3_136
*716 FILLER_0_3_142
*717 FILLER_0_3_2
*718 FILLER_0_3_206
*719 FILLER_0_3_212
*720 FILLER_0_3_276
*721 FILLER_0_3_282
*722 FILLER_0_3_314
*723 FILLER_0_3_330
*724 FILLER_0_3_66
*725 FILLER_0_3_72
*726 FILLER_0_40_101
*727 FILLER_0_40_107
*728 FILLER_0_40_139
*729 FILLER_0_40_145
*730 FILLER_0_40_151
*731 FILLER_0_40_157
*732 FILLER_0_40_163
*733 FILLER_0_40_169
*734 FILLER_0_40_173
*735 FILLER_0_40_177
*736 FILLER_0_40_2
*737 FILLER_0_40_241
*738 FILLER_0_40_247
*739 FILLER_0_40_311
*740 FILLER_0_40_317
*741 FILLER_0_40_325
*742 FILLER_0_40_329
*743 FILLER_0_40_34
*744 FILLER_0_40_37
*745 FILLER_0_41_104
*746 FILLER_0_41_120
*747 FILLER_0_41_123
*748 FILLER_0_41_139
*749 FILLER_0_41_142
*750 FILLER_0_41_144
*751 FILLER_0_41_175
*752 FILLER_0_41_181
*753 FILLER_0_41_187
*754 FILLER_0_41_2
*755 FILLER_0_41_203
*756 FILLER_0_41_207
*757 FILLER_0_41_209
*758 FILLER_0_41_212
*759 FILLER_0_41_276
*760 FILLER_0_41_282
*761 FILLER_0_41_314
*762 FILLER_0_41_330
*763 FILLER_0_41_66
*764 FILLER_0_41_72
*765 FILLER_0_42_104
*766 FILLER_0_42_108
*767 FILLER_0_42_138
*768 FILLER_0_42_165
*769 FILLER_0_42_167
*770 FILLER_0_42_172
*771 FILLER_0_42_174
*772 FILLER_0_42_193
*773 FILLER_0_42_2
*774 FILLER_0_42_201
*775 FILLER_0_42_203
*776 FILLER_0_42_206
*777 FILLER_0_42_240
*778 FILLER_0_42_274
*779 FILLER_0_42_308
*780 FILLER_0_42_324
*781 FILLER_0_42_328
*782 FILLER_0_42_330
*783 FILLER_0_42_36
*784 FILLER_0_42_70
*785 FILLER_0_4_101
*786 FILLER_0_4_107
*787 FILLER_0_4_171
*788 FILLER_0_4_177
*789 FILLER_0_4_2
*790 FILLER_0_4_241
*791 FILLER_0_4_247
*792 FILLER_0_4_311
*793 FILLER_0_4_317
*794 FILLER_0_4_325
*795 FILLER_0_4_329
*796 FILLER_0_4_34
*797 FILLER_0_4_37
*798 FILLER_0_5_136
*799 FILLER_0_5_142
*800 FILLER_0_5_2
*801 FILLER_0_5_206
*802 FILLER_0_5_212
*803 FILLER_0_5_276
*804 FILLER_0_5_282
*805 FILLER_0_5_314
*806 FILLER_0_5_330
*807 FILLER_0_5_66
*808 FILLER_0_5_72
*809 FILLER_0_6_101
*810 FILLER_0_6_107
*811 FILLER_0_6_171
*812 FILLER_0_6_177
*813 FILLER_0_6_2
*814 FILLER_0_6_241
*815 FILLER_0_6_247
*816 FILLER_0_6_311
*817 FILLER_0_6_317
*818 FILLER_0_6_325
*819 FILLER_0_6_329
*820 FILLER_0_6_34
*821 FILLER_0_6_37
*822 FILLER_0_7_136
*823 FILLER_0_7_142
*824 FILLER_0_7_2
*825 FILLER_0_7_206
*826 FILLER_0_7_212
*827 FILLER_0_7_276
*828 FILLER_0_7_282
*829 FILLER_0_7_314
*830 FILLER_0_7_330
*831 FILLER_0_7_66
*832 FILLER_0_7_72
*833 FILLER_0_8_101
*834 FILLER_0_8_107
*835 FILLER_0_8_171
*836 FILLER_0_8_177
*837 FILLER_0_8_2
*838 FILLER_0_8_241
*839 FILLER_0_8_247
*840 FILLER_0_8_311
*841 FILLER_0_8_317
*842 FILLER_0_8_325
*843 FILLER_0_8_329
*844 FILLER_0_8_34
*845 FILLER_0_8_37
*846 FILLER_0_9_136
*847 FILLER_0_9_142
*848 FILLER_0_9_2
*849 FILLER_0_9_206
*850 FILLER_0_9_212
*851 FILLER_0_9_276
*852 FILLER_0_9_282
*853 FILLER_0_9_314
*854 FILLER_0_9_330
*855 FILLER_0_9_66
*856 FILLER_0_9_72
*857 PHY_EDGE_ROW_0_Left_43
*858 PHY_EDGE_ROW_0_Right_0
*859 PHY_EDGE_ROW_10_Left_53
*860 PHY_EDGE_ROW_10_Right_10
*861 PHY_EDGE_ROW_11_Left_54
*862 PHY_EDGE_ROW_11_Right_11
*863 PHY_EDGE_ROW_12_Left_55
*864 PHY_EDGE_ROW_12_Right_12
*865 PHY_EDGE_ROW_13_Left_56
*866 PHY_EDGE_ROW_13_Right_13
*867 PHY_EDGE_ROW_14_Left_57
*868 PHY_EDGE_ROW_14_Right_14
*869 PHY_EDGE_ROW_15_Left_58
*870 PHY_EDGE_ROW_15_Right_15
*871 PHY_EDGE_ROW_16_Left_59
*872 PHY_EDGE_ROW_16_Right_16
*873 PHY_EDGE_ROW_17_Left_60
*874 PHY_EDGE_ROW_17_Right_17
*875 PHY_EDGE_ROW_18_Left_61
*876 PHY_EDGE_ROW_18_Right_18
*877 PHY_EDGE_ROW_19_Left_62
*878 PHY_EDGE_ROW_19_Right_19
*879 PHY_EDGE_ROW_1_Left_44
*880 PHY_EDGE_ROW_1_Right_1
*881 PHY_EDGE_ROW_20_Left_63
*882 PHY_EDGE_ROW_20_Right_20
*883 PHY_EDGE_ROW_21_Left_64
*884 PHY_EDGE_ROW_21_Right_21
*885 PHY_EDGE_ROW_22_Left_65
*886 PHY_EDGE_ROW_22_Right_22
*887 PHY_EDGE_ROW_23_Left_66
*888 PHY_EDGE_ROW_23_Right_23
*889 PHY_EDGE_ROW_24_Left_67
*890 PHY_EDGE_ROW_24_Right_24
*891 PHY_EDGE_ROW_25_Left_68
*892 PHY_EDGE_ROW_25_Right_25
*893 PHY_EDGE_ROW_26_Left_69
*894 PHY_EDGE_ROW_26_Right_26
*895 PHY_EDGE_ROW_27_Left_70
*896 PHY_EDGE_ROW_27_Right_27
*897 PHY_EDGE_ROW_28_Left_71
*898 PHY_EDGE_ROW_28_Right_28
*899 PHY_EDGE_ROW_29_Left_72
*900 PHY_EDGE_ROW_29_Right_29
*901 PHY_EDGE_ROW_2_Left_45
*902 PHY_EDGE_ROW_2_Right_2
*903 PHY_EDGE_ROW_30_Left_73
*904 PHY_EDGE_ROW_30_Right_30
*905 PHY_EDGE_ROW_31_Left_74
*906 PHY_EDGE_ROW_31_Right_31
*907 PHY_EDGE_ROW_32_Left_75
*908 PHY_EDGE_ROW_32_Right_32
*909 PHY_EDGE_ROW_33_Left_76
*910 PHY_EDGE_ROW_33_Right_33
*911 PHY_EDGE_ROW_34_Left_77
*912 PHY_EDGE_ROW_34_Right_34
*913 PHY_EDGE_ROW_35_Left_78
*914 PHY_EDGE_ROW_35_Right_35
*915 PHY_EDGE_ROW_36_Left_79
*916 PHY_EDGE_ROW_36_Right_36
*917 PHY_EDGE_ROW_37_Left_80
*918 PHY_EDGE_ROW_37_Right_37
*919 PHY_EDGE_ROW_38_Left_81
*920 PHY_EDGE_ROW_38_Right_38
*921 PHY_EDGE_ROW_39_Left_82
*922 PHY_EDGE_ROW_39_Right_39
*923 PHY_EDGE_ROW_3_Left_46
*924 PHY_EDGE_ROW_3_Right_3
*925 PHY_EDGE_ROW_40_Left_83
*926 PHY_EDGE_ROW_40_Right_40
*927 PHY_EDGE_ROW_41_Left_84
*928 PHY_EDGE_ROW_41_Right_41
*929 PHY_EDGE_ROW_42_Left_85
*930 PHY_EDGE_ROW_42_Right_42
*931 PHY_EDGE_ROW_4_Left_47
*932 PHY_EDGE_ROW_4_Right_4
*933 PHY_EDGE_ROW_5_Left_48
*934 PHY_EDGE_ROW_5_Right_5
*935 PHY_EDGE_ROW_6_Left_49
*936 PHY_EDGE_ROW_6_Right_6
*937 PHY_EDGE_ROW_7_Left_50
*938 PHY_EDGE_ROW_7_Right_7
*939 PHY_EDGE_ROW_8_Left_51
*940 PHY_EDGE_ROW_8_Right_8
*941 PHY_EDGE_ROW_9_Left_52
*942 PHY_EDGE_ROW_9_Right_9
*943 TAP_TAPCELL_ROW_0_86
*944 TAP_TAPCELL_ROW_0_87
*945 TAP_TAPCELL_ROW_0_88
*946 TAP_TAPCELL_ROW_0_89
*947 TAP_TAPCELL_ROW_0_90
*948 TAP_TAPCELL_ROW_0_91
*949 TAP_TAPCELL_ROW_0_92
*950 TAP_TAPCELL_ROW_0_93
*951 TAP_TAPCELL_ROW_0_94
*952 TAP_TAPCELL_ROW_10_135
*953 TAP_TAPCELL_ROW_10_136
*954 TAP_TAPCELL_ROW_10_137
*955 TAP_TAPCELL_ROW_10_138
*956 TAP_TAPCELL_ROW_10_139
*957 TAP_TAPCELL_ROW_11_140
*958 TAP_TAPCELL_ROW_11_141
*959 TAP_TAPCELL_ROW_11_142
*960 TAP_TAPCELL_ROW_11_143
*961 TAP_TAPCELL_ROW_12_144
*962 TAP_TAPCELL_ROW_12_145
*963 TAP_TAPCELL_ROW_12_146
*964 TAP_TAPCELL_ROW_12_147
*965 TAP_TAPCELL_ROW_12_148
*966 TAP_TAPCELL_ROW_13_149
*967 TAP_TAPCELL_ROW_13_150
*968 TAP_TAPCELL_ROW_13_151
*969 TAP_TAPCELL_ROW_13_152
*970 TAP_TAPCELL_ROW_14_153
*971 TAP_TAPCELL_ROW_14_154
*972 TAP_TAPCELL_ROW_14_155
*973 TAP_TAPCELL_ROW_14_156
*974 TAP_TAPCELL_ROW_14_157
*975 TAP_TAPCELL_ROW_15_158
*976 TAP_TAPCELL_ROW_15_159
*977 TAP_TAPCELL_ROW_15_160
*978 TAP_TAPCELL_ROW_15_161
*979 TAP_TAPCELL_ROW_16_162
*980 TAP_TAPCELL_ROW_16_163
*981 TAP_TAPCELL_ROW_16_164
*982 TAP_TAPCELL_ROW_16_165
*983 TAP_TAPCELL_ROW_16_166
*984 TAP_TAPCELL_ROW_17_167
*985 TAP_TAPCELL_ROW_17_168
*986 TAP_TAPCELL_ROW_17_169
*987 TAP_TAPCELL_ROW_17_170
*988 TAP_TAPCELL_ROW_18_171
*989 TAP_TAPCELL_ROW_18_172
*990 TAP_TAPCELL_ROW_18_173
*991 TAP_TAPCELL_ROW_18_174
*992 TAP_TAPCELL_ROW_18_175
*993 TAP_TAPCELL_ROW_19_176
*994 TAP_TAPCELL_ROW_19_177
*995 TAP_TAPCELL_ROW_19_178
*996 TAP_TAPCELL_ROW_19_179
*997 TAP_TAPCELL_ROW_1_95
*998 TAP_TAPCELL_ROW_1_96
*999 TAP_TAPCELL_ROW_1_97
*1000 TAP_TAPCELL_ROW_1_98
*1001 TAP_TAPCELL_ROW_20_180
*1002 TAP_TAPCELL_ROW_20_181
*1003 TAP_TAPCELL_ROW_20_182
*1004 TAP_TAPCELL_ROW_20_183
*1005 TAP_TAPCELL_ROW_20_184
*1006 TAP_TAPCELL_ROW_21_185
*1007 TAP_TAPCELL_ROW_21_186
*1008 TAP_TAPCELL_ROW_21_187
*1009 TAP_TAPCELL_ROW_21_188
*1010 TAP_TAPCELL_ROW_22_189
*1011 TAP_TAPCELL_ROW_22_190
*1012 TAP_TAPCELL_ROW_22_191
*1013 TAP_TAPCELL_ROW_22_192
*1014 TAP_TAPCELL_ROW_22_193
*1015 TAP_TAPCELL_ROW_23_194
*1016 TAP_TAPCELL_ROW_23_195
*1017 TAP_TAPCELL_ROW_23_196
*1018 TAP_TAPCELL_ROW_23_197
*1019 TAP_TAPCELL_ROW_24_198
*1020 TAP_TAPCELL_ROW_24_199
*1021 TAP_TAPCELL_ROW_24_200
*1022 TAP_TAPCELL_ROW_24_201
*1023 TAP_TAPCELL_ROW_24_202
*1024 TAP_TAPCELL_ROW_25_203
*1025 TAP_TAPCELL_ROW_25_204
*1026 TAP_TAPCELL_ROW_25_205
*1027 TAP_TAPCELL_ROW_25_206
*1028 TAP_TAPCELL_ROW_26_207
*1029 TAP_TAPCELL_ROW_26_208
*1030 TAP_TAPCELL_ROW_26_209
*1031 TAP_TAPCELL_ROW_26_210
*1032 TAP_TAPCELL_ROW_26_211
*1033 TAP_TAPCELL_ROW_27_212
*1034 TAP_TAPCELL_ROW_27_213
*1035 TAP_TAPCELL_ROW_27_214
*1036 TAP_TAPCELL_ROW_27_215
*1037 TAP_TAPCELL_ROW_28_216
*1038 TAP_TAPCELL_ROW_28_217
*1039 TAP_TAPCELL_ROW_28_218
*1040 TAP_TAPCELL_ROW_28_219
*1041 TAP_TAPCELL_ROW_28_220
*1042 TAP_TAPCELL_ROW_29_221
*1043 TAP_TAPCELL_ROW_29_222
*1044 TAP_TAPCELL_ROW_29_223
*1045 TAP_TAPCELL_ROW_29_224
*1046 TAP_TAPCELL_ROW_2_100
*1047 TAP_TAPCELL_ROW_2_101
*1048 TAP_TAPCELL_ROW_2_102
*1049 TAP_TAPCELL_ROW_2_103
*1050 TAP_TAPCELL_ROW_2_99
*1051 TAP_TAPCELL_ROW_30_225
*1052 TAP_TAPCELL_ROW_30_226
*1053 TAP_TAPCELL_ROW_30_227
*1054 TAP_TAPCELL_ROW_30_228
*1055 TAP_TAPCELL_ROW_30_229
*1056 TAP_TAPCELL_ROW_31_230
*1057 TAP_TAPCELL_ROW_31_231
*1058 TAP_TAPCELL_ROW_31_232
*1059 TAP_TAPCELL_ROW_31_233
*1060 TAP_TAPCELL_ROW_32_234
*1061 TAP_TAPCELL_ROW_32_235
*1062 TAP_TAPCELL_ROW_32_236
*1063 TAP_TAPCELL_ROW_32_237
*1064 TAP_TAPCELL_ROW_32_238
*1065 TAP_TAPCELL_ROW_33_239
*1066 TAP_TAPCELL_ROW_33_240
*1067 TAP_TAPCELL_ROW_33_241
*1068 TAP_TAPCELL_ROW_33_242
*1069 TAP_TAPCELL_ROW_34_243
*1070 TAP_TAPCELL_ROW_34_244
*1071 TAP_TAPCELL_ROW_34_245
*1072 TAP_TAPCELL_ROW_34_246
*1073 TAP_TAPCELL_ROW_34_247
*1074 TAP_TAPCELL_ROW_35_248
*1075 TAP_TAPCELL_ROW_35_249
*1076 TAP_TAPCELL_ROW_35_250
*1077 TAP_TAPCELL_ROW_35_251
*1078 TAP_TAPCELL_ROW_36_252
*1079 TAP_TAPCELL_ROW_36_253
*1080 TAP_TAPCELL_ROW_36_254
*1081 TAP_TAPCELL_ROW_36_255
*1082 TAP_TAPCELL_ROW_36_256
*1083 TAP_TAPCELL_ROW_37_257
*1084 TAP_TAPCELL_ROW_37_258
*1085 TAP_TAPCELL_ROW_37_259
*1086 TAP_TAPCELL_ROW_37_260
*1087 TAP_TAPCELL_ROW_38_261
*1088 TAP_TAPCELL_ROW_38_262
*1089 TAP_TAPCELL_ROW_38_263
*1090 TAP_TAPCELL_ROW_38_264
*1091 TAP_TAPCELL_ROW_38_265
*1092 TAP_TAPCELL_ROW_39_266
*1093 TAP_TAPCELL_ROW_39_267
*1094 TAP_TAPCELL_ROW_39_268
*1095 TAP_TAPCELL_ROW_39_269
*1096 TAP_TAPCELL_ROW_3_104
*1097 TAP_TAPCELL_ROW_3_105
*1098 TAP_TAPCELL_ROW_3_106
*1099 TAP_TAPCELL_ROW_3_107
*1100 TAP_TAPCELL_ROW_40_270
*1101 TAP_TAPCELL_ROW_40_271
*1102 TAP_TAPCELL_ROW_40_272
*1103 TAP_TAPCELL_ROW_40_273
*1104 TAP_TAPCELL_ROW_40_274
*1105 TAP_TAPCELL_ROW_41_275
*1106 TAP_TAPCELL_ROW_41_276
*1107 TAP_TAPCELL_ROW_41_277
*1108 TAP_TAPCELL_ROW_41_278
*1109 TAP_TAPCELL_ROW_42_279
*1110 TAP_TAPCELL_ROW_42_280
*1111 TAP_TAPCELL_ROW_42_281
*1112 TAP_TAPCELL_ROW_42_282
*1113 TAP_TAPCELL_ROW_42_283
*1114 TAP_TAPCELL_ROW_42_284
*1115 TAP_TAPCELL_ROW_42_285
*1116 TAP_TAPCELL_ROW_42_286
*1117 TAP_TAPCELL_ROW_42_287
*1118 TAP_TAPCELL_ROW_4_108
*1119 TAP_TAPCELL_ROW_4_109
*1120 TAP_TAPCELL_ROW_4_110
*1121 TAP_TAPCELL_ROW_4_111
*1122 TAP_TAPCELL_ROW_4_112
*1123 TAP_TAPCELL_ROW_5_113
*1124 TAP_TAPCELL_ROW_5_114
*1125 TAP_TAPCELL_ROW_5_115
*1126 TAP_TAPCELL_ROW_5_116
*1127 TAP_TAPCELL_ROW_6_117
*1128 TAP_TAPCELL_ROW_6_118
*1129 TAP_TAPCELL_ROW_6_119
*1130 TAP_TAPCELL_ROW_6_120
*1131 TAP_TAPCELL_ROW_6_121
*1132 TAP_TAPCELL_ROW_7_122
*1133 TAP_TAPCELL_ROW_7_123
*1134 TAP_TAPCELL_ROW_7_124
*1135 TAP_TAPCELL_ROW_7_125
*1136 TAP_TAPCELL_ROW_8_126
*1137 TAP_TAPCELL_ROW_8_127
*1138 TAP_TAPCELL_ROW_8_128
*1139 TAP_TAPCELL_ROW_8_129
*1140 TAP_TAPCELL_ROW_8_130
*1141 TAP_TAPCELL_ROW_9_131
*1142 TAP_TAPCELL_ROW_9_132
*1143 TAP_TAPCELL_ROW_9_133
*1144 TAP_TAPCELL_ROW_9_134
*1145 _18_
*1146 _19_
*1147 _20_
*1148 _21_
*1149 _22_
*1150 _23_
*1151 _24_
*1152 _25_
*1153 _26_
*1154 _27_
*1155 _28_
*1156 _29_
*1157 _30_
*1158 _31_
*1159 _32_
*1160 _33_
*1161 _34_
*1162 _35_
*1163 _36_
*1164 _37_
*1165 _38_
*1166 _39_
*1167 _40_
*1168 _41_
*1169 _42_
*1170 _43_
*1171 _44_
*1172 _45_
*1173 _46_
*1174 _47_
*1175 input1
*1176 input10
*1177 input11
*1178 input12
*1179 input13
*1180 input14
*1181 input15
*1182 input16
*1183 input17
*1184 input18
*1185 input19
*1186 input2
*1187 input20
*1188 input21
*1189 input22
*1190 input23
*1191 input24
*1192 input25
*1193 input26
*1194 input27
*1195 input28
*1196 input29
*1197 input3
*1198 input30
*1199 input31
*1200 input32
*1201 input33
*1202 input34
*1203 input35
*1204 input36
*1205 input37
*1206 input38
*1207 input39
*1208 input4
*1209 input40
*1210 input41
*1211 input42
*1212 input43
*1213 input44
*1214 input45
*1215 input46
*1216 input47
*1217 input48
*1218 input49
*1219 input5
*1220 input50
*1221 input6
*1222 input7
*1223 input8
*1224 input9
*1225 output51
*1226 output52
*1227 output53
*1228 output54
*1229 output55
*1230 output56
*1231 output57
*1232 output58
*1233 output59
*1234 output60
*1235 output61
*1236 output62

*PORTS
out[0] O
out[10] O
out[11] O
out[1] O
out[2] O
out[3] O
out[4] O
out[5] O
out[6] O
out[7] O
out[8] O
out[9] O
proj_out[0] I
proj_out[10] I
proj_out[11] I
proj_out[12] I
proj_out[13] I
proj_out[14] I
proj_out[15] I
proj_out[16] I
proj_out[17] I
proj_out[18] I
proj_out[19] I
proj_out[1] I
proj_out[20] I
proj_out[21] I
proj_out[22] I
proj_out[23] I
proj_out[24] I
proj_out[25] I
proj_out[26] I
proj_out[27] I
proj_out[28] I
proj_out[29] I
proj_out[2] I
proj_out[30] I
proj_out[31] I
proj_out[32] I
proj_out[33] I
proj_out[34] I
proj_out[35] I
proj_out[36] I
proj_out[37] I
proj_out[38] I
proj_out[39] I
proj_out[3] I
proj_out[40] I
proj_out[41] I
proj_out[42] I
proj_out[43] I
proj_out[44] I
proj_out[45] I
proj_out[46] I
proj_out[47] I
proj_out[4] I
proj_out[5] I
proj_out[6] I
proj_out[7] I
proj_out[8] I
proj_out[9] I
sel[0] I
sel[1] I

*D_NET *1 0.000941331
*CONN
*P out[0] O
*I *1225:Z O *D gf180mcu_fd_sc_mcu7t5v0__buf_8
*CAP
1 out[0] 0.000460629
2 *1225:Z 0.000460629
3 out[0] *174:I 0
4 out[0] *42:5 2.00724e-05
*RES
1 *1225:Z out[0] 12.195 
*END

*D_NET *2 0.000750521
*CONN
*P out[10] O
*I *1226:Z O *D gf180mcu_fd_sc_mcu7t5v0__buf_8
*CAP
1 out[10] 0.000315176
2 *1226:Z 0.000315176
3 out[10] *157:I 9.32478e-06
4 out[10] *186:I 9.93373e-06
5 out[10] *27:5 5.13175e-05
6 out[10] *53:5 4.95932e-05
*RES
1 *1226:Z out[10] 11.475 
*END

*D_NET *3 0.00118722
*CONN
*P out[11] O
*I *1227:Z O *D gf180mcu_fd_sc_mcu7t5v0__buf_8
*CAP
1 out[11] 0.000539856
2 *1227:Z 0.000539856
3 out[11] *52:9 0.000107505
*RES
1 *1227:Z out[11] 8.865 
*END

*D_NET *4 0.00104023
*CONN
*P out[1] O
*I *1228:Z O *D gf180mcu_fd_sc_mcu7t5v0__buf_8
*CAP
1 out[1] 0.00035743
2 *1228:Z 0.00035743
3 out[1] *174:I 9.93168e-06
4 out[1] *42:5 3.36803e-05
5 out[1] *43:7 3.31769e-05
6 out[1] *106:14 0.000248583
*RES
1 *1228:Z out[1] 11.655 
*END

*D_NET *5 0.000887338
*CONN
*P out[2] O
*I *1229:Z O *D gf180mcu_fd_sc_mcu7t5v0__buf_8
*CAP
1 out[2] 0.00039796
2 *1229:Z 0.00039796
3 out[2] *199:I 2.84815e-05
4 out[2] *19:9 6.29364e-05
*RES
1 *1229:Z out[2] 11.475 
*END

*D_NET *6 0.000775765
*CONN
*P out[3] O
*I *1230:Z O *D gf180mcu_fd_sc_mcu7t5v0__buf_8
*CAP
1 out[3] 0.000314745
2 *1230:Z 0.000314745
3 out[3] *178:I 1.25794e-05
4 out[3] *198:I 1.25828e-05
5 out[3] *1153:I1 4.83522e-05
6 out[3] *18:5 3.6265e-05
7 out[3] *46:5 3.64955e-05
*RES
1 *1230:Z out[3] 11.295 
*END

*D_NET *7 0.00111154
*CONN
*P out[4] O
*I *1231:Z O *D gf180mcu_fd_sc_mcu7t5v0__buf_8
*CAP
1 out[4] 0.000358036
2 *1231:Z 0.000358036
3 out[4] *194:I 5.11772e-05
4 out[4] *1218:I 0.000119182
5 out[4] *47:9 6.94814e-05
6 out[4] *61:5 5.71292e-05
7 out[4] *126:14 9.85004e-05
*RES
1 *1231:Z out[4] 12.555 
*END

*D_NET *8 0.0027793
*CONN
*P out[5] O
*I *1232:Z O *D gf180mcu_fd_sc_mcu7t5v0__buf_8
*CAP
1 out[5] 0.00106949
2 *1232:Z 0.00106949
3 out[5] out[6] 0.000285603
4 out[5] *201:I 0
5 out[5] *1233:I 0.000354728
*RES
1 *1232:Z out[5] 22.275 
*END

*D_NET *9 0.00247503
*CONN
*P out[6] O
*I *1233:Z O *D gf180mcu_fd_sc_mcu7t5v0__buf_8
*CAP
1 out[6] 0.000884277
2 *1233:Z 0.000884277
3 out[6] *201:I 4.83522e-05
4 out[6] *21:9 0.000372524
5 out[5] out[6] 0.000285603
*RES
1 *1233:Z out[6] 21.555 
*END

*D_NET *10 0.00153169
*CONN
*P out[7] O
*I *1234:Z O *D gf180mcu_fd_sc_mcu7t5v0__buf_8
*CAP
1 out[7] 0.000714745
2 *1234:Z 0.000714745
3 out[7] *58:9 0.000102196
*RES
1 *1234:Z out[7] 10.215 
*END

*D_NET *11 0.000834264
*CONN
*P out[8] O
*I *1235:Z O *D gf180mcu_fd_sc_mcu7t5v0__buf_8
*CAP
1 out[8] 0.000383706
2 *1235:Z 0.000383706
3 out[8] *171:I 1.25828e-05
4 out[8] *40:5 5.42682e-05
*RES
1 *1235:Z out[8] 11.835 
*END

*D_NET *12 0.00171863
*CONN
*P out[9] O
*I *1236:Z O *D gf180mcu_fd_sc_mcu7t5v0__buf_8
*CAP
1 out[9] 0.000743248
2 *1236:Z 0.000743248
3 out[9] *28:5 0.000114615
4 out[9] *54:5 0.000117515
*RES