*SPEF "ieee 1481-1999"
*DESIGN "unigate"
*DATE "11:11:11 Fri 11 11, 1111"
*VENDOR "OpenRCX"
*PROGRAM "Parallel Extraction"
*VERSION "1.0"
*DESIGN_FLOW "NAME_SCOPE LOCAL" "PIN_CAP NONE"
*DIVIDER /
*DELIMITER :
*BUS_DELIMITER []
*T_UNIT 1 NS
*C_UNIT 1 PF
*R_UNIT 1 OHM
*L_UNIT 1 HENRY

*NAME_MAP
*1 clk
*2 in[0]
*3 in[10]
*4 in[11]
*5 in[12]
*6 in[13]
*7 in[14]
*8 in[15]
*9 in[16]
*10 in[17]
*11 in[18]
*12 in[1]
*13 in[2]
*14 in[3]
*15 in[4]
*16 in[5]
*17 in[6]
*18 in[7]
*19 in[8]
*20 in[9]
*21 out[0]
*22 out[10]
*23 out[11]
*24 out[1]
*25 out[2]
*26 out[3]
*27 out[4]
*28 out[5]
*29 out[6]
*30 out[7]
*31 out[8]
*32 out[9]
*33 rst_n
*36 _0000_
*37 _0001_
*38 _0002_
*39 _0003_
*40 _0004_
*41 _0005_
*42 _0006_
*43 _0007_
*44 _0008_
*45 _0009_
*46 _0010_
*47 _0011_
*48 _0012_
*49 _0013_
*50 _0014_
*51 _0015_
*52 _0016_
*53 _0017_
*54 _0018_
*55 _0019_
*56 _0020_
*57 _0021_
*58 _0022_
*59 _0023_
*60 _0024_
*61 _0025_
*62 _0026_
*63 _0027_
*64 _0028_
*65 _0029_
*66 _0030_
*67 _0031_
*68 _0032_
*69 _0033_
*70 _0034_
*71 _0035_
*72 _0036_
*73 _0037_
*74 _0038_
*75 _0039_
*76 _0040_
*77 _0041_
*78 _0042_
*79 _0043_
*80 _0044_
*81 _0045_
*82 _0046_
*83 _0047_
*84 _0048_
*85 _0049_
*86 _0050_
*87 _0051_
*88 _0052_
*89 _0053_
*90 _0054_
*91 _0055_
*92 _0056_
*93 _0057_
*94 _0058_
*95 _0059_
*96 _0060_
*97 _0061_
*98 _0062_
*99 _0063_
*100 _0064_
*101 _0065_
*102 _0066_
*103 _0067_
*104 _0068_
*105 _0069_
*106 _0070_
*107 _0071_
*108 _0072_
*109 _0073_
*110 _0074_
*111 _0075_
*112 _0076_
*113 _0077_
*114 _0078_
*115 _0079_
*116 _0080_
*117 _0081_
*118 _0082_
*119 _0083_
*120 _0084_
*121 _0085_
*122 _0086_
*123 _0087_
*124 _0088_
*125 _0089_
*126 _0090_
*127 _0091_
*128 _0092_
*129 _0093_
*130 _0094_
*131 _0095_
*132 _0096_
*133 _0097_
*134 _0098_
*135 _0099_
*136 _0100_
*137 _0101_
*138 _0102_
*139 _0103_
*140 _0104_
*141 _0105_
*142 _0106_
*143 _0107_
*144 _0108_
*145 _0109_
*146 _0110_
*147 _0111_
*148 _0112_
*149 _0113_
*150 _0114_
*151 _0115_
*152 _0116_
*153 _0117_
*154 _0118_
*155 _0119_
*156 _0120_
*157 _0121_
*158 _0122_
*159 _0123_
*160 _0124_
*161 _0125_
*162 _0126_
*163 _0127_
*164 _0128_
*165 _0129_
*166 _0130_
*167 _0131_
*168 _0132_
*169 _0133_
*170 _0134_
*171 _0135_
*172 _0136_
*173 _0137_
*174 _0138_
*175 _0139_
*176 _0140_
*177 _0141_
*178 _0142_
*179 _0143_
*180 _0144_
*181 _0145_
*182 _0146_
*183 _0147_
*184 _0148_
*185 _0149_
*186 _0150_
*187 _0151_
*188 _0152_
*189 _0153_
*190 _0154_
*191 _0155_
*192 _0156_
*193 _0157_
*194 _0158_
*195 _0159_
*196 _0160_
*197 _0161_
*198 _0162_
*199 _0163_
*200 _0164_
*201 _0165_
*202 _0166_
*203 _0167_
*204 _0168_
*205 _0169_
*206 _0170_
*207 _0171_
*208 _0172_
*209 _0173_
*210 _0174_
*211 _0175_
*212 _0176_
*213 _0177_
*214 _0178_
*215 _0179_
*216 _0180_
*217 _0181_
*218 _0182_
*219 _0183_
*220 _0184_
*221 _0185_
*222 _0186_
*223 _0187_
*224 _0188_
*225 _0189_
*226 _0190_
*227 _0191_
*228 _0192_
*229 _0193_
*230 _0194_
*231 _0195_
*232 _0196_
*233 _0197_
*234 _0198_
*235 _0199_
*236 _0200_
*237 _0201_
*238 _0202_
*239 _0203_
*240 _0204_
*241 _0205_
*242 _0206_
*243 _0207_
*244 _0208_
*245 _0209_
*246 _0210_
*247 _0211_
*248 _0212_
*249 _0213_
*250 _0214_
*251 _0215_
*252 _0216_
*253 _0217_
*254 _0218_
*255 _0219_
*256 _0220_
*257 _0221_
*258 _0222_
*259 _0223_
*260 _0224_
*261 _0225_
*262 _0226_
*263 _0227_
*264 _0228_
*265 _0229_
*266 _0230_
*267 _0231_
*268 _0232_
*269 _0233_
*270 _0234_
*271 _0235_
*272 _0236_
*273 _0237_
*274 _0238_
*275 _0239_
*276 _0240_
*277 _0241_
*278 _0242_
*279 _0243_
*280 _0244_
*281 _0245_
*282 _0246_
*283 _0247_
*284 _0248_
*285 _0249_
*286 _0250_
*287 _0251_
*288 _0252_
*289 _0253_
*290 _0254_
*291 _0255_
*292 _0256_
*293 _0257_
*294 _0258_
*295 _0259_
*296 _0260_
*297 _0261_
*298 _0262_
*299 _0263_
*300 _0264_
*301 _0265_
*302 _0266_
*303 _0267_
*304 _0268_
*305 _0269_
*306 _0270_
*307 _0271_
*308 _0272_
*309 _0273_
*310 _0274_
*311 _0275_
*312 _0276_
*313 _0277_
*314 _0278_
*315 _0279_
*316 _0280_
*317 _0281_
*318 _0282_
*319 _0283_
*320 _0284_
*321 _0285_
*322 _0286_
*323 _0287_
*324 _0288_
*325 _0289_
*326 _0290_
*327 _0291_
*328 _0292_
*329 _0293_
*330 _0294_
*331 _0295_
*332 _0296_
*333 _0297_
*334 _0298_
*335 _0299_
*336 _0300_
*337 _0301_
*338 _0302_
*339 _0303_
*340 _0304_
*341 _0305_
*342 _0306_
*343 _0307_
*344 _0308_
*345 _0309_
*346 _0310_
*347 _0311_
*348 _0312_
*349 _0313_
*350 _0314_
*351 _0315_
*352 _0316_
*353 _0317_
*354 _0318_
*355 _0319_
*356 _0320_
*357 _0321_
*358 _0322_
*359 _0323_
*360 _0324_
*361 _0325_
*362 _0326_
*363 _0327_
*364 _0328_
*365 _0329_
*366 _0330_
*367 _0331_
*368 _0332_
*369 _0333_
*370 _0334_
*371 _0335_
*372 _0336_
*373 _0337_
*374 _0338_
*375 _0339_
*376 _0340_
*377 _0341_
*378 _0342_
*379 _0343_
*380 _0344_
*381 _0345_
*382 _0346_
*383 _0347_
*384 _0348_
*385 _0349_
*386 _0350_
*387 _0351_
*388 _0352_
*389 _0353_
*390 _0354_
*391 _0355_
*392 _0356_
*393 _0357_
*394 _0358_
*395 _0359_
*396 _0360_
*397 _0361_
*398 _0362_
*399 _0363_
*400 _0364_
*401 _0365_
*402 _0366_
*403 _0367_
*404 _0368_
*405 _0369_
*406 _0370_
*407 _0371_
*408 _0372_
*409 _0373_
*410 _0374_
*411 _0375_
*412 _0376_
*413 _0377_
*414 _0378_
*415 _0379_
*416 _0380_
*417 _0381_
*418 _0382_
*419 _0383_
*420 _0384_
*421 _0385_
*422 _0386_
*423 _0387_
*424 _0388_
*425 _0389_
*426 _0390_
*427 _0391_
*428 _0392_
*429 _0393_
*430 _0394_
*431 _0395_
*432 _0396_
*433 _0397_
*434 _0398_
*435 _0399_
*436 _0400_
*437 _0401_
*438 _0402_
*439 _0403_
*440 _0404_
*441 _0405_
*442 _0406_
*443 _0407_
*444 _0408_
*445 _0409_
*446 _0410_
*447 _0411_
*448 _0412_
*449 _0413_
*450 _0414_
*451 _0415_
*452 _0416_
*453 _0417_
*454 _0418_
*455 _0419_
*456 _0420_
*457 _0421_
*458 _0422_
*459 _0423_
*460 _0424_
*461 _0425_
*462 _0426_
*463 _0427_
*464 _0428_
*465 _0429_
*466 _0430_
*467 _0431_
*468 _0432_
*469 _0433_
*470 _0434_
*471 _0435_
*472 _0436_
*473 _0437_
*474 _0438_
*475 _0439_
*476 _0440_
*477 _0441_
*478 _0442_
*479 _0443_
*480 _0444_
*481 _0445_
*482 _0446_
*483 _0447_
*484 _0448_
*485 _0449_
*486 _0450_
*487 _0451_
*488 _0452_
*489 _0453_
*490 _0454_
*491 _0455_
*492 _0456_
*493 _0457_
*494 _0458_
*495 _0459_
*496 _0460_
*497 _0461_
*498 _0462_
*499 _0463_
*500 _0464_
*501 _0465_
*502 _0466_
*503 _0467_
*504 _0468_
*505 _0469_
*506 _0470_
*507 _0471_
*508 _0472_
*509 _0473_
*510 _0474_
*511 _0475_
*512 _0476_
*513 _0477_
*514 _0478_
*515 _0479_
*516 _0480_
*517 _0481_
*518 _0482_
*519 _0483_
*520 _0484_
*521 _0485_
*522 _0486_
*523 _0487_
*524 _0488_
*525 _0489_
*526 _0490_
*527 _0491_
*528 _0492_
*529 _0493_
*530 _0494_
*531 _0495_
*532 _0496_
*533 _0497_
*534 _0498_
*535 _0499_
*536 _0500_
*537 _0501_
*538 _0502_
*539 _0503_
*540 _0504_
*541 _0505_
*542 _0506_
*543 _0507_
*544 _0508_
*545 _0509_
*546 _0510_
*547 _0511_
*548 _0512_
*549 _0513_
*550 _0514_
*551 _0515_
*552 _0516_
*553 _0517_
*554 _0518_
*555 _0519_
*556 _0520_
*557 _0521_
*558 _0522_
*559 _0523_
*560 _0524_
*561 _0525_
*562 _0526_
*563 _0527_
*564 _0528_
*565 _0529_
*566 _0530_
*567 _0531_
*568 _0532_
*569 _0533_
*570 _0534_
*571 _0535_
*572 _0536_
*573 _0537_
*574 _0538_
*575 _0539_
*576 _0540_
*577 _0541_
*578 _0542_
*579 _0543_
*580 _0544_
*581 _0545_
*582 _0546_
*583 _0547_
*584 _0548_
*585 _0549_
*586 _0550_
*587 _0551_
*588 _0552_
*589 _0553_
*590 _0554_
*591 _0555_
*592 _0556_
*593 _0557_
*594 _0558_
*595 _0559_
*596 _0560_
*597 _0561_
*598 _0562_
*599 _0563_
*600 _0564_
*601 _0565_
*602 _0566_
*603 _0567_
*604 _0568_
*605 _0569_
*606 _0570_
*607 _0571_
*608 _0572_
*609 _0573_
*610 _0574_
*611 _0575_
*612 _0576_
*613 _0577_
*614 _0578_
*615 _0579_
*616 _0580_
*617 _0581_
*618 _0582_
*619 _0583_
*620 _0584_
*621 _0585_
*622 _0586_
*623 _0587_
*624 _0588_
*625 _0589_
*626 _0590_
*627 _0591_
*628 _0592_
*629 _0593_
*630 _0594_
*631 _0595_
*632 _0596_
*633 _0597_
*634 _0598_
*635 _0599_
*636 _0600_
*637 _0601_
*638 _0602_
*639 _0603_
*640 _0604_
*641 _0605_
*642 _0606_
*643 _0607_
*644 _0608_
*645 _0609_
*646 _0610_
*647 _0611_
*648 _0612_
*649 _0613_
*650 _0614_
*651 _0615_
*652 _0616_
*653 _0617_
*654 _0618_
*655 _0619_
*656 _0620_
*657 _0621_
*658 _0622_
*659 _0623_
*660 _0624_
*661 _0625_
*662 _0626_
*663 _0627_
*664 _0628_
*665 _0629_
*666 _0630_
*667 _0631_
*668 _0632_
*669 _0633_
*670 _0634_
*671 _0635_
*672 _0636_
*673 _0637_
*674 _0638_
*675 _0639_
*676 _0640_
*677 _0641_
*678 _0642_
*679 _0643_
*680 _0644_
*681 _0645_
*682 _0646_
*683 _0647_
*684 _0648_
*685 _0649_
*686 _0650_
*687 _0651_
*688 _0652_
*689 _0653_
*690 _0654_
*691 _0655_
*692 _0656_
*693 _0657_
*694 _0658_
*695 _0659_
*696 _0660_
*697 _0661_
*698 _0662_
*699 _0663_
*700 _0664_
*701 _0665_
*702 _0666_
*703 _0667_
*704 _0668_
*705 _0669_
*706 _0670_
*707 _0671_
*708 _0672_
*709 _0673_
*710 _0674_
*711 _0675_
*712 _0676_
*713 _0677_
*714 _0678_
*715 _0679_
*716 _0680_
*717 _0681_
*718 _0682_
*719 _0683_
*720 _0684_
*721 _0685_
*722 _0686_
*723 _0687_
*724 _0688_
*725 _0689_
*726 _0690_
*727 _0691_
*728 _0692_
*729 _0693_
*730 _0694_
*731 _0695_
*732 _0696_
*733 _0697_
*734 _0698_
*735 _0699_
*736 _0700_
*737 _0701_
*738 _0702_
*739 _0703_
*740 _0704_
*741 _0705_
*742 _0706_
*743 _0707_
*744 _0708_
*745 _0709_
*746 _0710_
*747 _0711_
*748 _0712_
*749 _0713_
*750 _0714_
*751 _0715_
*752 _0716_
*753 _0717_
*754 _0718_
*755 _0719_
*756 _0720_
*757 _0721_
*758 _0722_
*759 _0723_
*760 _0724_
*761 _0725_
*762 _0726_
*763 _0727_
*764 _0728_
*765 _0729_
*766 _0730_
*767 _0731_
*768 _0732_
*769 _0733_
*770 _0734_
*771 _0735_
*772 _0736_
*773 _0737_
*774 _0738_
*775 _0739_
*776 _0740_
*777 _0741_
*778 _0742_
*779 _0743_
*780 _0744_
*781 _0745_
*782 _0746_
*783 _0747_
*784 _0748_
*785 _0749_
*786 _0750_
*787 _0751_
*788 _0752_
*789 _0753_
*790 _0754_
*791 _0755_
*792 _0756_
*793 _0757_
*794 _0758_
*795 _0759_
*796 _0760_
*797 _0761_
*798 _0762_
*799 _0763_
*800 _0764_
*801 _0765_
*802 _0766_
*803 _0767_
*804 _0768_
*805 _0769_
*806 _0770_
*807 _0771_
*808 _0772_
*809 _0773_
*810 _0774_
*811 _0775_
*812 _0776_
*813 _0777_
*814 _0778_
*815 _0779_
*816 _0780_
*817 _0781_
*818 _0782_
*819 _0783_
*820 _0784_
*821 _0785_
*822 _0786_
*823 _0787_
*824 _0788_
*825 _0789_
*826 _0790_
*827 _0791_
*828 _0792_
*829 _0793_
*830 _0794_
*831 _0795_
*832 _0796_
*833 _0797_
*834 _0798_
*835 _0799_
*836 _0800_
*837 _0801_
*838 _0802_
*839 _0803_
*840 _0804_
*841 _0805_
*842 _0806_
*843 _0807_
*844 _0808_
*845 _0809_
*846 _0810_
*847 _0811_
*848 _0812_
*849 _0813_
*850 _0814_
*851 _0815_
*852 _0816_
*853 _0817_
*854 _0818_
*855 _0819_
*856 _0820_
*857 _0821_
*858 _0822_
*859 _0823_
*860 _0824_
*861 _0825_
*862 _0826_
*863 _0827_
*864 _0828_
*865 _0829_
*866 _0830_
*867 _0831_
*868 _0832_
*869 _0833_
*870 _0834_
*871 _0835_
*872 _0836_
*873 _0837_
*874 _0838_
*875 _0839_
*876 _0840_
*877 _0841_
*878 _0842_
*879 _0843_
*880 _0844_
*881 _0845_
*882 _0846_
*883 _0847_
*884 _0848_
*885 _0849_
*886 _0850_
*887 _0851_
*888 _0852_
*889 _0853_
*890 _0854_
*891 _0855_
*892 _0856_
*893 _0857_
*894 _0858_
*895 _0859_
*896 _0860_
*897 _0861_
*898 _0862_
*899 _0863_
*900 _0864_
*901 _0865_
*902 _0866_
*903 _0867_
*904 _0868_
*905 _0869_
*906 _0870_
*907 _0871_
*908 _0872_
*909 _0873_
*910 _0874_
*911 _0875_
*912 _0876_
*913 _0877_
*914 _0878_
*915 _0879_
*916 _0880_
*917 _0881_
*918 _0882_
*919 _0883_
*920 _0884_
*921 _0885_
*922 _0886_
*923 _0887_
*924 _0888_
*925 _0889_
*926 _0890_
*927 _0891_
*928 _0892_
*929 _0893_
*930 _0894_
*931 _0895_
*932 _0896_
*933 _0897_
*934 _0898_
*935 _0899_
*936 _0900_
*937 _0901_
*938 _0902_
*939 _0903_
*940 _0904_
*941 _0905_
*942 _0906_
*943 _0907_
*944 _0908_
*945 _0909_
*946 _0910_
*947 _0911_
*948 _0912_
*949 _0913_
*950 _0914_
*951 _0915_
*952 _0916_
*953 _0917_
*954 _0918_
*955 _0919_
*956 _0920_
*957 _0921_
*958 _0922_
*959 _0923_
*960 _0924_
*961 _0925_
*962 _0926_
*963 _0927_
*964 _0928_
*965 _0929_
*966 _0930_
*967 _0931_
*968 _0932_
*969 _0933_
*970 _0934_
*971 _0935_
*972 _0936_
*973 _0937_
*974 _0938_
*975 _0939_
*976 _0940_
*977 _0941_
*978 _0942_
*979 _0943_
*980 _0944_
*981 _0945_
*982 _0946_
*983 _0947_
*984 _0948_
*985 _0949_
*986 _0950_
*987 _0951_
*988 _0952_
*989 _0953_
*990 _0954_
*991 _0955_
*992 _0956_
*993 _0957_
*994 _0958_
*995 _0959_
*996 _0960_
*997 _0961_
*998 _0962_
*999 _0963_
*1000 _0964_
*1001 _0965_
*1002 _0966_
*1003 _0967_
*1004 _0968_
*1005 _0969_
*1006 _0970_
*1007 _0971_
*1008 _0972_
*1009 _0973_
*1010 _0974_
*1011 _0975_
*1012 _0976_
*1013 _0977_
*1014 _0978_
*1015 _0979_
*1016 _0980_
*1017 _0981_
*1018 _0982_
*1019 _0983_
*1020 _0984_
*1021 _0985_
*1022 _0986_
*1023 _0987_
*1024 _0988_
*1025 _0989_
*1026 _0990_
*1027 _0991_
*1028 _0992_
*1029 _0993_
*1030 _0994_
*1031 _0995_
*1032 _0996_
*1033 _0997_
*1034 _0998_
*1035 _0999_
*1036 _1000_
*1037 _1001_
*1038 _1002_
*1039 _1003_
*1040 _1004_
*1041 _1005_
*1042 _1006_
*1043 _1007_
*1044 _1008_
*1045 _1009_
*1046 _1010_
*1047 _1011_
*1048 _1012_
*1049 _1013_
*1050 _1014_
*1051 _1015_
*1052 _1016_
*1053 _1017_
*1054 _1018_
*1055 _1019_
*1056 _1020_
*1057 _1021_
*1058 _1022_
*1059 _1023_
*1060 _1024_
*1061 _1025_
*1062 _1026_
*1063 _1027_
*1064 _1028_
*1065 _1029_
*1066 _1030_
*1067 _1031_
*1068 _1032_
*1069 _1033_
*1070 _1034_
*1071 _1035_
*1072 _1036_
*1073 _1037_
*1074 _1038_
*1075 _1039_
*1076 _1040_
*1077 _1041_
*1078 _1042_
*1079 _1043_
*1080 _1044_
*1081 _1045_
*1082 _1046_
*1083 _1047_
*1084 _1048_
*1085 _1049_
*1086 _1050_
*1087 _1051_
*1088 _1052_
*1089 _1053_
*1090 _1054_
*1091 _1055_
*1092 _1056_
*1093 _1057_
*1094 _1058_
*1095 _1059_
*1096 _1060_
*1097 _1061_
*1098 _1062_
*1099 _1063_
*1100 _1064_
*1101 _1065_
*1102 _1066_
*1103 _1067_
*1104 _1068_
*1105 _1069_
*1106 _1070_
*1107 _1071_
*1108 _1072_
*1109 _1073_
*1110 _1074_
*1111 _1075_
*1112 _1076_
*1113 _1077_
*1114 _1078_
*1115 _1079_
*1116 _1080_
*1117 _1081_
*1118 _1082_
*1119 _1083_
*1120 _1084_
*1121 _1085_
*1122 _1086_
*1123 _1087_
*1124 _1088_
*1125 _1089_
*1126 _1090_
*1127 _1091_
*1128 _1092_
*1129 _1093_
*1130 _1094_
*1131 _1095_
*1132 _1096_
*1133 _1097_
*1134 _1098_
*1135 _1099_
*1136 _1100_
*1137 _1101_
*1138 _1102_
*1139 _1103_
*1140 _1104_
*1141 _1105_
*1142 _1106_
*1143 _1107_
*1144 _1108_
*1145 _1109_
*1146 _1110_
*1147 _1111_
*1148 _1112_
*1149 _1113_
*1150 _1114_
*1151 _1115_
*1152 _1116_
*1153 _1117_
*1154 _1118_
*1155 _1119_
*1156 _1120_
*1157 _1121_
*1158 _1122_
*1159 _1123_
*1160 _1124_
*1161 _1125_
*1162 _1126_
*1163 _1127_
*1164 _1128_
*1165 _1129_
*1166 _1130_
*1167 _1131_
*1168 _1132_
*1169 _1133_
*1170 _1134_
*1171 _1135_
*1172 _1136_
*1173 _1137_
*1174 _1138_
*1175 _1139_
*1176 _1140_
*1177 _1141_
*1178 _1142_
*1179 _1143_
*1180 _1144_
*1181 _1145_
*1182 _1146_
*1183 _1147_
*1184 _1148_
*1185 _1149_
*1186 _1150_
*1187 _1151_
*1188 _1152_
*1189 _1153_
*1190 _1154_
*1191 _1155_
*1192 _1156_
*1193 _1157_
*1194 _1158_
*1195 _1159_
*1196 _1160_
*1197 _1161_
*1198 _1162_
*1199 _1163_
*1200 _1164_
*1201 _1165_
*1202 _1166_
*1203 _1167_
*1204 _1168_
*1205 _1169_
*1206 _1170_
*1207 _1171_
*1208 _1172_
*1209 _1173_
*1210 _1174_
*1211 _1175_
*1212 _1176_
*1213 _1177_
*1214 _1178_
*1215 _1179_
*1216 _1180_
*1217 _1181_
*1218 _1182_
*1219 _1183_
*1220 _1184_
*1221 _1185_
*1222 _1186_
*1223 _1187_
*1224 _1188_
*1225 _1189_
*1226 _1190_
*1227 _1191_
*1228 _1192_
*1229 _1193_
*1230 _1194_
*1231 _1195_
*1232 _1196_
*1233 _1197_
*1234 _1198_
*1235 _1199_
*1236 _1200_
*1237 _1201_
*1238 _1202_
*1239 _1203_
*1240 _1204_
*1241 _1205_
*1242 _1206_
*1243 _1207_
*1244 _1208_
*1245 _1209_
*1246 _1210_
*1247 _1211_
*1248 _1212_
*1249 _1213_
*1250 _1214_
*1251 _1215_
*1252 _1216_
*1253 _1217_
*1254 _1218_
*1255 _1219_
*1256 _1220_
*1257 _1221_
*1258 _1222_
*1259 _1223_
*1260 _1224_
*1261 _1225_
*1262 _1226_
*1263 _1227_
*1264 _1228_
*1265 _1229_
*1266 _1230_
*1267 _1231_
*1268 _1232_
*1269 _1233_
*1270 _1234_
*1271 _1235_
*1272 _1236_
*1273 _1237_
*1274 _1238_
*1275 _1239_
*1276 _1240_
*1277 _1241_
*1278 _1242_
*1279 _1243_
*1280 _1244_
*1281 _1245_
*1282 _1246_
*1283 _1247_
*1284 _1248_
*1285 _1249_
*1286 _1250_
*1287 _1251_
*1288 _1252_
*1289 _1253_
*1290 _1254_
*1291 _1255_
*1292 _1256_
*1293 _1257_
*1294 _1258_
*1295 _1259_
*1296 _1260_
*1297 _1261_
*1298 _1262_
*1299 _1263_
*1300 _1264_
*1301 _1265_
*1302 _1266_
*1303 _1267_
*1304 _1268_
*1305 _1269_
*1306 _1270_
*1307 _1271_
*1308 _1272_
*1309 _1273_
*1310 _1274_
*1311 _1275_
*1312 _1276_
*1313 _1277_
*1314 _1278_
*1315 _1279_
*1316 _1280_
*1317 _1281_
*1318 _1282_
*1319 _1283_
*1320 _1284_
*1321 _1285_
*1322 _1286_
*1323 _1287_
*1324 _1288_
*1325 _1289_
*1326 _1290_
*1327 _1291_
*1328 _1292_
*1329 _1293_
*1330 _1294_
*1331 _1295_
*1332 _1296_
*1333 _1297_
*1334 _1298_
*1335 _1299_
*1336 _1300_
*1337 _1301_
*1338 _1302_
*1339 _1303_
*1340 _1304_
*1341 _1305_
*1342 _1306_
*1343 _1307_
*1344 _1308_
*1345 _1309_
*1346 _1310_
*1347 _1311_
*1348 _1312_
*1349 _1313_
*1350 _1314_
*1351 _1315_
*1352 _1316_
*1353 _1317_
*1354 _1318_
*1355 _1319_
*1356 _1320_
*1357 _1321_
*1358 _1322_
*1359 _1323_
*1360 _1324_
*1361 _1325_
*1362 _1326_
*1363 _1327_
*1364 _1328_
*1365 _1329_
*1366 _1330_
*1367 _1331_
*1368 _1332_
*1369 _1333_
*1370 _1334_
*1371 _1335_
*1372 _1336_
*1373 _1337_
*1374 _1338_
*1375 _1339_
*1376 _1340_
*1377 _1341_
*1378 _1342_
*1379 _1343_
*1380 _1344_
*1381 _1345_
*1382 _1346_
*1383 _1347_
*1384 _1348_
*1385 _1349_
*1386 _1350_
*1387 _1351_
*1388 _1352_
*1389 _1353_
*1390 _1354_
*1391 _1355_
*1392 _1356_
*1393 _1357_
*1394 _1358_
*1395 _1359_
*1396 _1360_
*1397 _1361_
*1398 _1362_
*1399 _1363_
*1400 _1364_
*1401 _1365_
*1402 _1366_
*1403 _1367_
*1404 _1368_
*1405 _1369_
*1406 _1370_
*1407 _1371_
*1408 _1372_
*1409 _1373_
*1410 _1374_
*1411 _1375_
*1412 _1376_
*1413 _1377_
*1414 _1378_
*1415 _1379_
*1416 _1380_
*1417 _1381_
*1418 _1382_
*1419 _1383_
*1420 _1384_
*1421 _1385_
*1422 _1386_
*1423 _1387_
*1424 _1388_
*1425 _1389_
*1426 _1390_
*1427 _1391_
*1428 _1392_
*1429 _1393_
*1430 _1394_
*1431 _1395_
*1432 _1396_
*1433 _1397_
*1434 _1398_
*1435 _1399_
*1436 _1400_
*1437 _1401_
*1438 _1402_
*1439 _1403_
*1440 _1404_
*1441 _1405_
*1442 _1406_
*1443 _1407_
*1444 _1408_
*1445 _1409_
*1446 _1410_
*1447 _1411_
*1448 _1412_
*1449 _1413_
*1450 _1414_
*1451 _1415_
*1452 _1416_
*1453 _1417_
*1454 _1418_
*1455 _1419_
*1456 _1420_
*1457 _1421_
*1458 _1422_
*1459 _1423_
*1460 _1424_
*1461 _1425_
*1462 _1426_
*1463 _1427_
*1464 _1428_
*1465 _1429_
*1466 _1430_
*1467 _1431_
*1468 _1432_
*1469 _1433_
*1470 _1434_
*1471 _1435_
*1472 _1436_
*1473 _1437_
*1474 _1438_
*1475 _1439_
*1476 _1440_
*1477 _1441_
*1478 _1442_
*1479 _1443_
*1480 _1444_
*1481 _1445_
*1482 _1446_
*1483 _1447_
*1484 _1448_
*1485 _1449_
*1486 _1450_
*1487 _1451_
*1488 _1452_
*1489 _1453_
*1490 _1454_
*1491 _1455_
*1492 _1456_
*1493 _1457_
*1494 _1458_
*1495 _1459_
*1496 _1460_
*1497 _1461_
*1498 _1462_
*1499 _1463_
*1500 _1464_
*1501 _1465_
*1502 _1466_
*1503 _1467_
*1504 _1468_
*1505 _1469_
*1506 _1470_
*1507 _1471_
*1508 _1472_
*1509 _1473_
*1510 _1474_
*1511 _1475_
*1512 _1476_
*1513 _1477_
*1514 _1478_
*1515 _1479_
*1516 _1480_
*1517 _1481_
*1518 _1482_
*1519 _1483_
*1520 _1484_
*1521 _1485_
*1522 _1486_
*1523 _1487_
*1524 _1488_
*1525 _1489_
*1526 _1490_
*1527 _1491_
*1528 _1492_
*1529 _1493_
*1530 _1494_
*1531 _1495_
*1532 _1496_
*1533 _1497_
*1534 _1498_
*1535 _1499_
*1536 _1500_
*1537 _1501_
*1538 _1502_
*1539 _1503_
*1540 _1504_
*1541 _1505_
*1542 _1506_
*1543 _1507_
*1544 _1508_
*1545 _1509_
*1546 _1510_
*1547 _1511_
*1548 _1512_
*1549 _1513_
*1550 _1514_
*1551 _1515_
*1552 _1516_
*1553 _1517_
*1554 _1518_
*1555 _1519_
*1556 _1520_
*1557 _1521_
*1558 _1522_
*1559 _1523_
*1560 _1524_
*1561 _1525_
*1562 _1526_
*1563 _1527_
*1564 _1528_
*1565 _1529_
*1566 _1530_
*1567 _1531_
*1568 _1532_
*1569 _1533_
*1570 _1534_
*1571 _1535_
*1572 _1536_
*1573 _1537_
*1574 _1538_
*1575 _1539_
*1576 _1540_
*1577 _1541_
*1578 _1542_
*1579 _1543_
*1580 _1544_
*1581 _1545_
*1582 _1546_
*1583 _1547_
*1584 _1548_
*1585 _1549_
*1586 _1550_
*1587 _1551_
*1588 _1552_
*1589 _1553_
*1590 _1554_
*1591 _1555_
*1592 _1556_
*1593 _1557_
*1594 _1558_
*1595 _1559_
*1596 _1560_
*1597 _1561_
*1598 _1562_
*1599 _1563_
*1600 _1564_
*1601 _1565_
*1602 _1566_
*1603 _1567_
*1604 _1568_
*1605 _1569_
*1606 _1570_
*1607 _1571_
*1608 _1572_
*1609 _1573_
*1610 _1574_
*1611 _1575_
*1612 _1576_
*1613 _1577_
*1614 _1578_
*1615 _1579_
*1616 _1580_
*1617 _1581_
*1618 _1582_
*1619 _1583_
*1620 _1584_
*1621 _1585_
*1622 _1586_
*1623 _1587_
*1624 _1588_
*1625 _1589_
*1626 _1590_
*1627 _1591_
*1628 _1592_
*1629 _1593_
*1630 _1594_
*1631 _1595_
*1632 _1596_
*1633 _1597_
*1634 _1598_
*1635 _1599_
*1636 _1600_
*1637 _1601_
*1638 _1602_
*1639 _1603_
*1640 _1604_
*1641 _1605_
*1642 _1606_
*1643 _1607_
*1644 _1608_
*1645 _1609_
*1646 _1610_
*1647 _1611_
*1648 _1612_
*1649 _1613_
*1650 _1614_
*1651 _1615_
*1652 _1616_
*1653 _1617_
*1654 _1618_
*1655 _1619_
*1656 _1620_
*1657 _1621_
*1658 _1622_
*1659 _1623_
*1660 _1624_
*1661 _1625_
*1662 _1626_
*1663 _1627_
*1664 _1628_
*1665 _1629_
*1666 _1630_
*1667 _1631_
*1668 _1632_
*1669 _1633_
*1670 _1634_
*1671 _1635_
*1672 _1636_
*1673 _1637_
*1674 _1638_
*1675 _1639_
*1676 _1640_
*1677 _1641_
*1678 _1642_
*1679 _1643_
*1680 _1644_
*1681 _1645_
*1682 _1646_
*1683 _1647_
*1684 _1648_
*1685 _1649_
*1686 _1650_
*1687 _1651_
*1688 _1652_
*1689 _1653_
*1690 _1654_
*1691 _1655_
*1692 _1656_
*1693 _1657_
*1694 _1658_
*1695 _1659_
*1696 _1660_
*1697 _1661_
*1698 _1662_
*1699 _1663_
*1700 _1664_
*1701 _1665_
*1702 _1666_
*1703 _1667_
*1704 _1668_
*1705 _1669_
*1706 _1670_
*1707 _1671_
*1708 _1672_
*1709 _1673_
*1710 _1674_
*1711 _1675_
*1712 _1676_
*1713 _1677_
*1714 _1678_
*1715 _1679_
*1716 _1680_
*1717 _1681_
*1718 _1682_
*1719 _1683_
*1720 _1684_
*1721 _1685_
*1722 _1686_
*1723 _1687_
*1724 _1688_
*1725 _1689_
*1726 _1690_
*1727 _1691_
*1728 _1692_
*1729 _1693_
*1730 _1694_
*1731 _1695_
*1732 _1696_
*1733 _1697_
*1734 _1698_
*1735 _1699_
*1736 _1700_
*1737 _1701_
*1738 _1702_
*1739 _1703_
*1740 _1704_
*1741 _1705_
*1742 _1706_
*1743 _1707_
*1744 _1708_
*1745 _1709_
*1746 _1710_
*1747 _1711_
*1748 _1712_
*1749 _1713_
*1750 _1714_
*1751 _1715_
*1752 _1716_
*1753 _1717_
*1754 _1718_
*1755 _1719_
*1756 _1720_
*1757 _1721_
*1758 _1722_
*1759 _1723_
*1760 _1724_
*1761 _1725_
*1762 _1726_
*1763 _1727_
*1764 _1728_
*1765 _1729_
*1766 _1730_
*1767 _1731_
*1768 _1732_
*1769 _1733_
*1770 _1734_
*1771 _1735_
*1772 _1736_
*1773 _1737_
*1774 _1738_
*1775 _1739_
*1776 _1740_
*1777 _1741_
*1778 _1742_
*1779 _1743_
*1780 _1744_
*1781 _1745_
*1782 _1746_
*1783 _1747_
*1784 _1748_
*1785 _1749_
*1786 _1750_
*1787 _1751_
*1788 _1752_
*1789 _1753_
*1790 _1754_
*1791 _1755_
*1792 _1756_
*1793 _1757_
*1794 _1758_
*1795 _1759_
*1796 _1760_
*1797 _1761_
*1798 _1762_
*1799 _1763_
*1800 _1764_
*1801 _1765_
*1802 _1766_
*1803 _1767_
*1804 _1768_
*1805 _1769_
*1806 _1770_
*1807 _1771_
*1808 _1772_
*1809 _1773_
*1810 _1774_
*1811 _1775_
*1812 _1776_
*1813 _1777_
*1814 _1778_
*1815 _1779_
*1816 _1780_
*1817 _1781_
*1818 _1782_
*1819 _1783_
*1820 _1784_
*1821 _1785_
*1822 _1786_
*1823 _1787_
*1824 _1788_
*1825 _1789_
*1826 _1790_
*1827 _1791_
*1828 _1792_
*1829 _1793_
*1830 _1794_
*1831 _1795_
*1832 _1796_
*1833 _1797_
*1834 _1798_
*1835 _1799_
*1836 _1800_
*1837 _1801_
*1838 _1802_
*1839 _1803_
*1840 _1804_
*1841 _1805_
*1842 _1806_
*1843 _1807_
*1844 _1808_
*1845 _1809_
*1846 _1810_
*1847 _1811_
*1848 _1812_
*1849 _1813_
*1850 _1814_
*1851 _1815_
*1852 _1816_
*1853 _1817_
*1854 _1818_
*1855 _1819_
*1856 _1820_
*1857 _1821_
*1858 _1822_
*1859 _1823_
*1860 _1824_
*1861 _1825_
*1862 _1826_
*1863 _1827_
*1864 _1828_
*1865 _1829_
*1866 _1830_
*1867 _1831_
*1868 _1832_
*1869 _1833_
*1870 _1834_
*1871 _1835_
*1872 _1836_
*1873 _1837_
*1874 _1838_
*1875 _1839_
*1876 _1840_
*1877 _1841_
*1878 _1842_
*1879 _1843_
*1880 _1844_
*1881 _1845_
*1882 _1846_
*1883 _1847_
*1884 _1848_
*1885 _1849_
*1886 _1850_
*1887 _1851_
*1888 _1852_
*1889 _1853_
*1890 _1854_
*1891 _1855_
*1892 _1856_
*1893 _1857_
*1894 _1858_
*1895 _1859_
*1896 _1860_
*1897 _1861_
*1898 _1862_
*1899 clknet_0_clk
*1900 clknet_3_0__leaf_clk
*1901 clknet_3_1__leaf_clk
*1902 clknet_3_2__leaf_clk
*1903 clknet_3_3__leaf_clk
*1904 clknet_3_4__leaf_clk
*1905 clknet_3_5__leaf_clk
*1906 clknet_3_6__leaf_clk
*1907 clknet_3_7__leaf_clk
*1908 gate\.saved_func\[0\]
*1909 gate\.saved_func\[10\]
*1910 gate\.saved_func\[11\]
*1911 gate\.saved_func\[12\]
*1912 gate\.saved_func\[13\]
*1913 gate\.saved_func\[14\]
*1914 gate\.saved_func\[15\]
*1915 gate\.saved_func\[1\]
*1916 gate\.saved_func\[2\]
*1917 gate\.saved_func\[3\]
*1918 gate\.saved_func\[4\]
*1919 gate\.saved_func\[5\]
*1920 gate\.saved_func\[6\]
*1921 gate\.saved_func\[7\]
*1922 gate\.saved_func\[8\]
*1923 gate\.saved_func\[9\]
*1924 gate\.saved_pin\[0\]
*1925 gate\.saved_pin\[1\]
*1926 gate\.saved_pin\[2\]
*1927 gate\.saved_pin\[3\]
*1928 gate\.saved_sel\[0\]
*1929 gate\.saved_sel\[1\]
*1930 gate\.ucomb_ref_inst\.u21_ref_inst\.wfull\[0\]
*1931 gate\.ucomb_ref_inst\.u21_ref_inst\.wfull\[10\]
*1932 gate\.ucomb_ref_inst\.u21_ref_inst\.wfull\[3\]
*1933 gate\.ucomb_ref_inst\.u21_ref_inst\.wfull\[4\]
*1934 gate\.ucomb_ref_inst\.u21_ref_inst\.wfull\[6\]
*1935 gate\.ucomb_ref_inst\.u21_ref_inst\.wfull\[7\]
*1936 gate\.ucomb_ref_inst\.u21_ref_inst\.wfull\[9\]
*1937 gate\.ucomb_ref_inst\.u22_ref_inst\.wfull\[0\]
*1938 gate\.ucomb_ref_inst\.u22_ref_inst\.wfull\[10\]
*1939 gate\.ucomb_ref_inst\.u22_ref_inst\.wfull\[12\]
*1940 gate\.ucomb_ref_inst\.u22_ref_inst\.wfull\[13\]
*1941 gate\.ucomb_ref_inst\.u22_ref_inst\.wfull\[15\]
*1942 gate\.ucomb_ref_inst\.u22_ref_inst\.wfull\[16\]
*1943 gate\.ucomb_ref_inst\.u22_ref_inst\.wfull\[1\]
*1944 gate\.ucomb_ref_inst\.u22_ref_inst\.wfull\[3\]
*1945 gate\.ucomb_ref_inst\.u22_ref_inst\.wfull\[4\]
*1946 gate\.ucomb_ref_inst\.u22_ref_inst\.wfull\[6\]
*1947 gate\.ucomb_ref_inst\.u22_ref_inst\.wfull\[7\]
*1948 gate\.ucomb_ref_inst\.u22_ref_inst\.wfull\[9\]
*1949 gate\.ucomb_ref_inst\.u31_ref_inst\.wfull\[0\]
*1950 gate\.ucomb_ref_inst\.u31_ref_inst\.wfull\[10\]
*1951 gate\.ucomb_ref_inst\.u31_ref_inst\.wfull\[11\]
*1952 gate\.ucomb_ref_inst\.u31_ref_inst\.wfull\[12\]
*1953 gate\.ucomb_ref_inst\.u31_ref_inst\.wfull\[13\]
*1954 gate\.ucomb_ref_inst\.u31_ref_inst\.wfull\[14\]
*1955 gate\.ucomb_ref_inst\.u31_ref_inst\.wfull\[15\]
*1956 gate\.ucomb_ref_inst\.u31_ref_inst\.wfull\[16\]
*1957 gate\.ucomb_ref_inst\.u31_ref_inst\.wfull\[17\]
*1958 gate\.ucomb_ref_inst\.u31_ref_inst\.wfull\[1\]
*1959 gate\.ucomb_ref_inst\.u31_ref_inst\.wfull\[2\]
*1960 gate\.ucomb_ref_inst\.u31_ref_inst\.wfull\[3\]
*1961 gate\.ucomb_ref_inst\.u31_ref_inst\.wfull\[4\]
*1962 gate\.ucomb_ref_inst\.u31_ref_inst\.wfull\[5\]
*1963 gate\.ucomb_ref_inst\.u31_ref_inst\.wfull\[6\]
*1964 gate\.ucomb_ref_inst\.u31_ref_inst\.wfull\[7\]
*1965 gate\.ucomb_ref_inst\.u31_ref_inst\.wfull\[8\]
*1966 gate\.ucomb_ref_inst\.u31_ref_inst\.wfull\[9\]
*1967 net1
*1968 net10
*1969 net11
*1970 net12
*1971 net13
*1972 net14
*1973 net15
*1974 net16
*1975 net17
*1976 net18
*1977 net19
*1978 net2
*1979 net20
*1980 net21
*1981 net22
*1982 net23
*1983 net24
*1984 net25
*1985 net26
*1986 net27
*1987 net28
*1988 net29
*1989 net3
*1990 net30
*1991 net31
*1992 net32
*1993 net4
*1994 net5
*1995 net6
*1996 net7
*1997 net8
*1998 net9
*1999 ANTENNA_1
*2000 ANTENNA__1863__I
*2001 ANTENNA__1865__I
*2002 ANTENNA__1867__I
*2003 ANTENNA__1869__I
*2004 ANTENNA__1871__I
*2005 ANTENNA__1874__A1
*2006 ANTENNA__1874__A2
*2007 ANTENNA__1875__I
*2008 ANTENNA__1878__I
*2009 ANTENNA__1879__I
*2010 ANTENNA__1880__I
*2011 ANTENNA__1883__I
*2012 ANTENNA__1886__I
*2013 ANTENNA__1887__I
*2014 ANTENNA__1894__I
*2015 ANTENNA__1895__A1
*2016 ANTENNA__1901__I
*2017 ANTENNA__1902__I
*2018 ANTENNA__1905__I
*2019 ANTENNA__1908__I
*2020 ANTENNA__1912__B
*2021 ANTENNA__1915__I
*2022 ANTENNA__1918__I
*2023 ANTENNA__1921__I
*2024 ANTENNA__1922__A1
*2025 ANTENNA__1922__A3
*2026 ANTENNA__1924__B
*2027 ANTENNA__1927__A1
*2028 ANTENNA__1927__A2
*2029 ANTENNA__1929__I
*2030 ANTENNA__1930__A1
*2031 ANTENNA__1930__A2
*2032 ANTENNA__1942__I
*2033 ANTENNA__1943__I
*2034 ANTENNA__1946__I
*2035 ANTENNA__1948__A1
*2036 ANTENNA__1948__A2
*2037 ANTENNA__1951__I
*2038 ANTENNA__1952__A1
*2039 ANTENNA__1952__A2
*2040 ANTENNA__1952__A3
*2041 ANTENNA__1956__I
*2042 ANTENNA__1963__A1
*2043 ANTENNA__1963__A2
*2044 ANTENNA__1963__A3
*2045 ANTENNA__1963__B
*2046 ANTENNA__1964__A2
*2047 ANTENNA__1964__B
*2048 ANTENNA__1970__A3
*2049 ANTENNA__1974__B
*2050 ANTENNA__1977__A1
*2051 ANTENNA__1984__I
*2052 ANTENNA__1986__A1
*2053 ANTENNA__1989__I
*2054 ANTENNA__1990__A1
*2055 ANTENNA__1991__I
*2056 ANTENNA__1992__A1
*2057 ANTENNA__1995__I
*2058 ANTENNA__1997__A3
*2059 ANTENNA__1998__I
*2060 ANTENNA__1999__I
*2061 ANTENNA__2001__I
*2062 ANTENNA__2002__I
*2063 ANTENNA__2003__A3
*2064 ANTENNA__2004__I
*2065 ANTENNA__2005__I
*2066 ANTENNA__2006__A1
*2067 ANTENNA__2007__I
*2068 ANTENNA__2009__I
*2069 ANTENNA__2010__I
*2070 ANTENNA__2011__A1
*2071 ANTENNA__2011__A2
*2072 ANTENNA__2013__I
*2073 ANTENNA__2015__I
*2074 ANTENNA__2017__A2
*2075 ANTENNA__2020__A1
*2076 ANTENNA__2021__I
*2077 ANTENNA__2025__A1
*2078 ANTENNA__2025__A2
*2079 ANTENNA__2026__I
*2080 ANTENNA__2034__I
*2081 ANTENNA__2035__I
*2082 ANTENNA__2040__A2
*2083 ANTENNA__2040__A4
*2084 ANTENNA__2044__A1
*2085 ANTENNA__2044__A2
*2086 ANTENNA__2044__B
*2087 ANTENNA__2044__C
*2088 ANTENNA__2046__I
*2089 ANTENNA__2048__B1
*2090 ANTENNA__2048__B2
*2091 ANTENNA__2049__A1
*2092 ANTENNA__2049__A2
*2093 ANTENNA__2050__A1
*2094 ANTENNA__2050__A2
*2095 ANTENNA__2053__I
*2096 ANTENNA__2054__I
*2097 ANTENNA__2055__I
*2098 ANTENNA__2056__I
*2099 ANTENNA__2058__I
*2100 ANTENNA__2060__I
*2101 ANTENNA__2062__A2
*2102 ANTENNA__2062__B
*2103 ANTENNA__2064__A1
*2104 ANTENNA__2064__A2
*2105 ANTENNA__2064__B1
*2106 ANTENNA__2064__B2
*2107 ANTENNA__2069__A1
*2108 ANTENNA__2070__I
*2109 ANTENNA__2071__A1
*2110 ANTENNA__2071__A2
*2111 ANTENNA__2072__I
*2112 ANTENNA__2073__A3
*2113 ANTENNA__2074__I
*2114 ANTENNA__2075__B
*2115 ANTENNA__2076__I
*2116 ANTENNA__2079__I
*2117 ANTENNA__2080__A2
*2118 ANTENNA__2081__A2
*2119 ANTENNA__2081__B2
*2120 ANTENNA__2082__I
*2121 ANTENNA__2083__A1
*2122 ANTENNA__2084__I
*2123 ANTENNA__2085__B
*2124 ANTENNA__2086__I
*2125 ANTENNA__2087__A1