*SPEF "ieee 1481-1999"
*DESIGN "caravel_if"
*DATE "11:11:11 Fri 11 11, 1111"
*VENDOR "OpenRCX"
*PROGRAM "Parallel Extraction"
*VERSION "1.0"
*DESIGN_FLOW "NAME_SCOPE LOCAL" "PIN_CAP NONE"
*DIVIDER /
*DELIMITER :
*BUS_DELIMITER []
*T_UNIT 1 NS
*C_UNIT 1 PF
*R_UNIT 1 OHM
*L_UNIT 1 HENRY

*NAME_MAP
*1 clk
*2 in[0]
*3 in[10]
*4 in[11]
*5 in[12]
*6 in[13]
*7 in[14]
*8 in[15]
*9 in[16]
*10 in[17]
*11 in[1]
*12 in[2]
*13 in[3]
*14 in[4]
*15 in[5]
*16 in[6]
*17 in[7]
*18 in[8]
*19 in[9]
*20 io_in[0]
*21 io_in[10]
*22 io_in[11]
*23 io_in[12]
*24 io_in[13]
*25 io_in[14]
*26 io_in[15]
*27 io_in[16]
*28 io_in[17]
*29 io_in[18]
*30 io_in[19]
*31 io_in[1]
*32 io_in[20]
*33 io_in[21]
*34 io_in[22]
*35 io_in[23]
*36 io_in[24]
*37 io_in[25]
*38 io_in[26]
*39 io_in[27]
*40 io_in[28]
*41 io_in[29]
*42 io_in[2]
*43 io_in[30]
*44 io_in[31]
*45 io_in[32]
*46 io_in[33]
*47 io_in[34]
*48 io_in[35]
*49 io_in[36]
*50 io_in[37]
*51 io_in[3]
*52 io_in[4]
*53 io_in[5]
*54 io_in[6]
*55 io_in[7]
*56 io_in[8]
*57 io_in[9]
*58 net227
*59 net211
*60 net212
*61 net213
*62 net214
*63 net215
*64 net216
*65 net217
*66 net218
*67 net219
*68 net220
*69 net228
*70 net221
*71 net222
*72 net223
*73 net224
*74 net225
*75 net226
*76 net70
*77 net71
*78 net72
*79 net73
*80 net229
*81 net74
*82 net75
*83 net76
*84 net77
*85 net78
*86 net79
*87 net80
*88 net81
*89 net230
*90 net231
*91 net232
*92 net233
*93 net208
*94 net209
*95 net210
*96 net82
*97 net92
*98 net93
*99 net94
*100 net95
*101 net96
*102 net97
*103 net98
*104 net99
*105 net100
*106 net101
*107 net83
*108 net102
*109 net103
*110 net104
*111 net105
*112 net106
*113 net107
*114 io_out[26]
*115 io_out[27]
*116 io_out[28]
*117 io_out[29]
*118 net84
*119 io_out[30]
*120 io_out[31]
*121 io_out[32]
*122 io_out[33]
*123 io_out[34]
*124 io_out[35]
*125 io_out[36]
*126 io_out[37]
*127 net85
*128 net86
*129 net87
*130 net88
*131 net89
*132 net90
*133 net91
*134 la_data_in[0]
*135 la_data_in[10]
*136 la_data_in[11]
*137 la_data_in[12]
*138 la_data_in[13]
*139 la_data_in[14]
*140 la_data_in[15]
*141 la_data_in[16]
*142 la_data_in[17]
*143 la_data_in[18]
*144 la_data_in[19]
*145 la_data_in[1]
*146 la_data_in[20]
*147 la_data_in[21]
*148 la_data_in[22]
*149 la_data_in[23]
*150 la_data_in[24]
*151 la_data_in[25]
*152 la_data_in[26]
*153 la_data_in[27]
*154 la_data_in[28]
*155 la_data_in[29]
*156 la_data_in[2]
*157 la_data_in[30]
*158 la_data_in[31]
*159 la_data_in[32]
*160 la_data_in[33]
*161 la_data_in[34]
*162 la_data_in[35]
*163 la_data_in[36]
*164 la_data_in[37]
*165 la_data_in[38]
*166 la_data_in[39]
*167 la_data_in[3]
*168 la_data_in[40]
*169 la_data_in[41]
*170 la_data_in[42]
*171 la_data_in[43]
*172 la_data_in[44]
*173 la_data_in[45]
*174 la_data_in[46]
*175 la_data_in[47]
*176 la_data_in[48]
*177 la_data_in[49]
*178 la_data_in[4]
*179 la_data_in[50]
*180 la_data_in[51]
*181 la_data_in[52]
*182 la_data_in[53]
*183 la_data_in[54]
*184 la_data_in[55]
*185 la_data_in[56]
*186 la_data_in[57]
*187 la_data_in[58]
*188 la_data_in[59]
*189 la_data_in[5]
*190 la_data_in[60]
*191 la_data_in[61]
*192 la_data_in[62]
*193 la_data_in[63]
*194 la_data_in[6]
*195 la_data_in[7]
*196 la_data_in[8]
*197 la_data_in[9]
*198 net108
*199 net118
*200 net119
*201 net120
*202 net121
*203 net122
*204 net123
*205 net124
*206 net125
*207 net126
*208 net127
*209 net109
*210 net128
*211 net129
*212 net130
*213 net131
*214 net132
*215 net133
*216 net134
*217 net135
*218 net136
*219 net137
*220 net110
*221 net138
*222 net139
*223 net140
*224 net141
*225 net142
*226 net143
*227 net144
*228 net145
*229 net146
*230 net147
*231 net111
*232 net148
*233 net149
*234 net150
*235 net151
*236 net152
*237 net153
*238 net154
*239 net155
*240 net156
*241 net157
*242 net112
*243 net158
*244 net159
*245 net160
*246 net161
*247 net162
*248 net163
*249 net164
*250 net165
*251 net166
*252 net167
*253 net113
*254 net168
*255 net169
*256 net170
*257 net171
*258 net114
*259 net115
*260 net116
*261 net117
*262 la_oenb[0]
*263 la_oenb[10]
*264 la_oenb[11]
*265 la_oenb[12]
*266 la_oenb[13]
*267 la_oenb[14]
*268 la_oenb[15]
*269 la_oenb[16]
*270 la_oenb[17]
*271 la_oenb[18]
*272 la_oenb[19]
*273 la_oenb[1]
*274 la_oenb[20]
*275 la_oenb[21]
*276 la_oenb[22]
*277 la_oenb[23]
*278 la_oenb[24]
*279 la_oenb[25]
*280 la_oenb[26]
*281 la_oenb[27]
*282 la_oenb[28]
*283 la_oenb[29]
*284 la_oenb[2]
*285 la_oenb[30]
*286 la_oenb[31]
*287 la_oenb[32]
*288 la_oenb[33]
*289 la_oenb[34]
*290 la_oenb[35]
*291 la_oenb[36]
*292 la_oenb[37]
*293 la_oenb[38]
*294 la_oenb[39]
*295 la_oenb[3]
*296 la_oenb[40]
*297 la_oenb[41]
*298 la_oenb[42]
*299 la_oenb[43]
*300 la_oenb[44]
*301 la_oenb[45]
*302 la_oenb[46]
*303 la_oenb[47]
*304 la_oenb[48]
*305 la_oenb[49]
*306 la_oenb[4]
*307 la_oenb[50]
*308 la_oenb[51]
*309 la_oenb[52]
*310 la_oenb[53]
*311 la_oenb[54]
*312 la_oenb[55]
*313 la_oenb[56]
*314 la_oenb[57]
*315 la_oenb[58]
*316 la_oenb[59]
*317 la_oenb[5]
*318 la_oenb[60]
*319 la_oenb[61]
*320 la_oenb[62]
*321 la_oenb[63]
*322 la_oenb[6]
*323 la_oenb[7]
*324 la_oenb[8]
*325 la_oenb[9]
*326 out[0]
*327 out[10]
*328 out[11]
*329 out[1]
*330 out[2]
*331 out[3]
*332 out[4]
*333 out[5]
*334 out[6]
*335 out[7]
*336 out[8]
*337 out[9]
*338 rst_n
*339 sel[0]
*340 sel[1]
*341 sel[2]
*342 user_clock2
*343 net172
*344 net173
*345 net174
*348 wb_clk_i
*349 wb_rst_i
*350 net175
*351 wbs_adr_i[0]
*352 wbs_adr_i[10]
*353 wbs_adr_i[11]
*354 wbs_adr_i[12]
*355 wbs_adr_i[13]
*356 wbs_adr_i[14]
*357 wbs_adr_i[15]
*358 wbs_adr_i[16]
*359 wbs_adr_i[17]
*360 wbs_adr_i[18]
*361 wbs_adr_i[19]
*362 wbs_adr_i[1]
*363 wbs_adr_i[20]
*364 wbs_adr_i[21]
*365 wbs_adr_i[22]
*366 wbs_adr_i[23]
*367 wbs_adr_i[24]
*368 wbs_adr_i[25]
*369 wbs_adr_i[26]
*370 wbs_adr_i[27]
*371 wbs_adr_i[28]
*372 wbs_adr_i[29]
*373 wbs_adr_i[2]
*374 wbs_adr_i[30]
*375 wbs_adr_i[31]
*376 wbs_adr_i[3]
*377 wbs_adr_i[4]
*378 wbs_adr_i[5]
*379 wbs_adr_i[6]
*380 wbs_adr_i[7]
*381 wbs_adr_i[8]
*382 wbs_adr_i[9]
*383 wbs_cyc_i
*384 wbs_dat_i[0]
*385 wbs_dat_i[10]
*386 wbs_dat_i[11]
*387 wbs_dat_i[12]
*388 wbs_dat_i[13]
*389 wbs_dat_i[14]
*390 wbs_dat_i[15]
*391 wbs_dat_i[16]
*392 wbs_dat_i[17]
*393 wbs_dat_i[18]
*394 wbs_dat_i[19]
*395 wbs_dat_i[1]
*396 wbs_dat_i[20]
*397 wbs_dat_i[21]
*398 wbs_dat_i[22]
*399 wbs_dat_i[23]
*400 wbs_dat_i[24]
*401 wbs_dat_i[25]
*402 wbs_dat_i[26]
*403 wbs_dat_i[27]
*404 wbs_dat_i[28]
*405 wbs_dat_i[29]
*406 wbs_dat_i[2]
*407 wbs_dat_i[30]
*408 wbs_dat_i[31]
*409 wbs_dat_i[3]
*410 wbs_dat_i[4]
*411 wbs_dat_i[5]
*412 wbs_dat_i[6]
*413 wbs_dat_i[7]
*414 wbs_dat_i[8]
*415 wbs_dat_i[9]
*416 net176
*417 net186
*418 net187
*419 net188
*420 net189
*421 net190
*422 net191
*423 net192
*424 net193
*425 net194
*426 net195
*427 net177
*428 net196
*429 net197
*430 net198
*431 net199
*432 net200
*433 net201
*434 net202
*435 net203
*436 net204
*437 net205
*438 net178
*439 net206
*440 net207
*441 net179
*442 net180
*443 net181
*444 net182
*445 net183
*446 net184
*447 net185
*448 wbs_sel_i[0]
*449 wbs_sel_i[1]
*450 wbs_sel_i[2]
*451 wbs_sel_i[3]
*452 wbs_stb_i
*453 wbs_we_i
*454 net1
*455 net10
*456 net11
*457 net12
*458 net13
*459 net14
*460 net15
*461 net16
*462 net17
*463 net18
*464 net19
*465 net2
*466 net20
*467 net21
*468 net22
*469 net23
*470 net24
*471 net25
*472 net26
*473 net27
*474 net28
*475 net29
*476 net3
*477 net30
*478 net31
*479 net32
*480 net33
*481 net34
*482 net35
*483 net36
*484 net37
*485 net38
*486 net39
*487 net4
*488 net40
*489 net41
*490 net42
*491 net43
*492 net44
*493 net45
*494 net46
*495 net47
*496 net48
*497 net49
*498 net5
*499 net50
*500 net51
*501 net52
*502 net53
*503 net54
*504 net55
*505 net56
*506 net57
*507 net58
*508 net59
*509 net6
*510 net60
*511 net61
*512 net62
*513 net63
*514 net64
*515 net65
*516 net66
*517 net67
*518 net68
*519 net69
*520 net7
*521 net8
*522 net9
*523 ANTENNA__000__I
*524 ANTENNA__165__I
*525 ANTENNA__166__I
*526 ANTENNA__167__I
*527 ANTENNA__168__I
*528 ANTENNA__169__I
*529 ANTENNA__170__I
*530 ANTENNA__171__I
*531 ANTENNA__172__I
*532 ANTENNA__173__I
*533 ANTENNA__174__I
*534 ANTENNA__175__I
*535 ANTENNA__176__I
*536 ANTENNA__177__I
*537 ANTENNA__178__I
*538 ANTENNA__179__I
*539 ANTENNA__180__I
*540 ANTENNA__181__I
*541 ANTENNA__182__I
*542 ANTENNA__183__I
*543 ANTENNA__184__I
*544 ANTENNA__185__I
*545 ANTENNA__186__I
*546 ANTENNA__187__I
*547 ANTENNA__188__I
*548 ANTENNA__189__I
*549 ANTENNA__190__I
*550 ANTENNA__191__I
*551 ANTENNA__192__I
*552 ANTENNA__193__I
*553 ANTENNA__194__I
*554 ANTENNA__195__I
*555 ANTENNA__196__I
*556 ANTENNA__197__I
*557 ANTENNA__198__I
*558 ANTENNA_input10_I
*559 ANTENNA_input11_I
*560 ANTENNA_input12_I
*561 ANTENNA_input13_I
*562 ANTENNA_input14_I
*563 ANTENNA_input15_I
*564 ANTENNA_input16_I
*565 ANTENNA_input17_I
*566 ANTENNA_input18_I
*567 ANTENNA_input19_I
*568 ANTENNA_input1_I
*569 ANTENNA_input20_I
*570 ANTENNA_input21_I
*571 ANTENNA_input22_I
*572 ANTENNA_input23_I
*573 ANTENNA_input24_I
*574 ANTENNA_input25_I
*575 ANTENNA_input26_I
*576 ANTENNA_input27_I
*577 ANTENNA_input28_I
*578 ANTENNA_input29_I
*579 ANTENNA_input2_I
*580 ANTENNA_input30_I
*581 ANTENNA_input31_I
*582 ANTENNA_input32_I
*583 ANTENNA_input33_I
*584 ANTENNA_input34_I
*585 ANTENNA_input3_I
*586 ANTENNA_input4_I
*587 ANTENNA_input5_I
*588 ANTENNA_input6_I
*589 ANTENNA_input7_I
*590 ANTENNA_input8_I
*591 ANTENNA_input9_I
*592 ANTENNA_output35_I
*593 ANTENNA_output36_I
*594 ANTENNA_output37_I
*595 ANTENNA_output38_I
*596 ANTENNA_output39_I
*597 ANTENNA_output40_I
*598 ANTENNA_output41_I
*599 ANTENNA_output42_I
*600 ANTENNA_output43_I
*601 ANTENNA_output44_I
*602 ANTENNA_output45_I
*603 ANTENNA_output46_I
*604 ANTENNA_output47_I
*605 ANTENNA_output48_I
*606 ANTENNA_output49_I
*607 ANTENNA_output50_I
*608 ANTENNA_output51_I
*609 ANTENNA_output52_I
*610 ANTENNA_output53_I
*611 ANTENNA_output54_I
*612 ANTENNA_output55_I
*613 ANTENNA_output56_I
*614 ANTENNA_output57_I
*615 ANTENNA_output58_I
*616 ANTENNA_output59_I
*617 ANTENNA_output60_I
*618 ANTENNA_output61_I
*619 ANTENNA_output62_I
*620 ANTENNA_output63_I
*621 ANTENNA_output64_I
*622 ANTENNA_output65_I
*623 ANTENNA_output66_I
*624 ANTENNA_output67_I
*625 ANTENNA_output68_I
*626 ANTENNA_output69_I
*627 FILLER_0_0_104
*628 FILLER_0_0_138
*629 FILLER_0_0_172
*630 FILLER_0_0_2
*631 FILLER_0_0_206
*632 FILLER_0_0_222
*633 FILLER_0_0_228
*634 FILLER_0_0_240
*635 FILLER_0_0_251
*636 FILLER_0_0_257
*637 FILLER_0_0_263
*638 FILLER_0_0_274
*639 FILLER_0_0_276
*640 FILLER_0_0_281
*641 FILLER_0_0_287
*642 FILLER_0_0_299
*643 FILLER_0_0_305
*644 FILLER_0_0_312
*645 FILLER_0_0_317
*646 FILLER_0_0_323
*647 FILLER_0_0_329
*648 FILLER_0_0_335
*649 FILLER_0_0_342
*650 FILLER_0_0_347
*651 FILLER_0_0_353
*652 FILLER_0_0_36
*653 FILLER_0_0_367
*654 FILLER_0_0_426
*655 FILLER_0_0_431
*656 FILLER_0_0_437
*657 FILLER_0_0_470
*658 FILLER_0_0_474
*659 FILLER_0_0_478
*660 FILLER_0_0_512
*661 FILLER_0_0_546
*662 FILLER_0_0_580
*663 FILLER_0_0_614
*664 FILLER_0_0_648
*665 FILLER_0_0_682
*666 FILLER_0_0_686
*667 FILLER_0_0_70
*668 FILLER_0_10_101
*669 FILLER_0_10_107
*670 FILLER_0_10_171
*671 FILLER_0_10_177
*672 FILLER_0_10_2
*673 FILLER_0_10_241
*674 FILLER_0_10_247
*675 FILLER_0_10_311
*676 FILLER_0_10_317
*677 FILLER_0_10_34
*678 FILLER_0_10_37
*679 FILLER_0_10_381
*680 FILLER_0_10_387
*681 FILLER_0_10_451
*682 FILLER_0_10_457
*683 FILLER_0_10_521
*684 FILLER_0_10_527
*685 FILLER_0_10_591
*686 FILLER_0_10_597
*687 FILLER_0_10_661
*688 FILLER_0_10_667
*689 FILLER_0_10_683
*690 FILLER_0_10_687
*691 FILLER_0_11_136
*692 FILLER_0_11_142
*693 FILLER_0_11_206
*694 FILLER_0_11_212
*695 FILLER_0_11_276
*696 FILLER_0_11_282
*697 FILLER_0_11_346
*698 FILLER_0_11_352
*699 FILLER_0_11_416
*700 FILLER_0_11_422
*701 FILLER_0_11_486
*702 FILLER_0_11_492
*703 FILLER_0_11_556
*704 FILLER_0_11_562
*705 FILLER_0_11_6
*706 FILLER_0_11_626
*707 FILLER_0_11_632
*708 FILLER_0_11_664
*709 FILLER_0_11_680
*710 FILLER_0_11_72
*711 FILLER_0_12_101
*712 FILLER_0_12_107
*713 FILLER_0_12_171
*714 FILLER_0_12_177
*715 FILLER_0_12_241
*716 FILLER_0_12_247
*717 FILLER_0_12_28
*718 FILLER_0_12_311
*719 FILLER_0_12_317
*720 FILLER_0_12_32
*721 FILLER_0_12_34
*722 FILLER_0_12_37
*723 FILLER_0_12_381
*724 FILLER_0_12_387
*725 FILLER_0_12_451
*726 FILLER_0_12_457
*727 FILLER_0_12_521
*728 FILLER_0_12_527
*729 FILLER_0_12_591
*730 FILLER_0_12_597
*731 FILLER_0_12_661
*732 FILLER_0_12_667
*733 FILLER_0_12_683
*734 FILLER_0_12_687
*735 FILLER_0_13_136
*736 FILLER_0_13_142
*737 FILLER_0_13_206
*738 FILLER_0_13_212
*739 FILLER_0_13_276
*740 FILLER_0_13_282
*741 FILLER_0_13_346
*742 FILLER_0_13_352
*743 FILLER_0_13_416
*744 FILLER_0_13_422
*745 FILLER_0_13_486
*746 FILLER_0_13_492
*747 FILLER_0_13_556
*748 FILLER_0_13_562
*749 FILLER_0_13_6
*750 FILLER_0_13_626
*751 FILLER_0_13_632
*752 FILLER_0_13_664
*753 FILLER_0_13_680
*754 FILLER_0_13_72
*755 FILLER_0_14_101
*756 FILLER_0_14_107
*757 FILLER_0_14_171
*758 FILLER_0_14_177
*759 FILLER_0_14_22
*760 FILLER_0_14_241
*761 FILLER_0_14_247
*762 FILLER_0_14_30
*763 FILLER_0_14_311
*764 FILLER_0_14_317
*765 FILLER_0_14_34
*766 FILLER_0_14_37
*767 FILLER_0_14_381
*768 FILLER_0_14_387
*769 FILLER_0_14_451
*770 FILLER_0_14_457
*771 FILLER_0_14_521
*772 FILLER_0_14_527
*773 FILLER_0_14_591
*774 FILLER_0_14_597
*775 FILLER_0_14_6
*776 FILLER_0_14_661
*777 FILLER_0_14_667
*778 FILLER_0_14_683
*779 FILLER_0_14_687
*780 FILLER_0_15_136
*781 FILLER_0_15_142
*782 FILLER_0_15_206
*783 FILLER_0_15_212
*784 FILLER_0_15_276
*785 FILLER_0_15_282
*786 FILLER_0_15_346
*787 FILLER_0_15_352
*788 FILLER_0_15_416
*789 FILLER_0_15_422
*790 FILLER_0_15_486
*791 FILLER_0_15_492
*792 FILLER_0_15_556
*793 FILLER_0_15_562
*794 FILLER_0_15_6
*795 FILLER_0_15_626
*796 FILLER_0_15_632
*797 FILLER_0_15_664
*798 FILLER_0_15_680
*799 FILLER_0_15_72
*800 FILLER_0_16_101
*801 FILLER_0_16_107
*802 FILLER_0_16_171
*803 FILLER_0_16_177
*804 FILLER_0_16_22
*805 FILLER_0_16_241
*806 FILLER_0_16_247
*807 FILLER_0_16_30
*808 FILLER_0_16_311
*809 FILLER_0_16_317
*810 FILLER_0_16_34
*811 FILLER_0_16_37
*812 FILLER_0_16_381
*813 FILLER_0_16_387
*814 FILLER_0_16_451
*815 FILLER_0_16_457
*816 FILLER_0_16_521
*817 FILLER_0_16_527
*818 FILLER_0_16_591
*819 FILLER_0_16_597
*820 FILLER_0_16_6
*821 FILLER_0_16_661
*822 FILLER_0_16_667
*823 FILLER_0_16_683
*824 FILLER_0_16_687
*825 FILLER_0_17_12
*826 FILLER_0_17_136
*827 FILLER_0_17_142
*828 FILLER_0_17_16
*829 FILLER_0_17_206
*830 FILLER_0_17_212
*831 FILLER_0_17_276
*832 FILLER_0_17_282
*833 FILLER_0_17_346
*834 FILLER_0_17_352
*835 FILLER_0_17_416
*836 FILLER_0_17_422
*837 FILLER_0_17_48
*838 FILLER_0_17_486
*839 FILLER_0_17_492
*840 FILLER_0_17_556
*841 FILLER_0_17_562
*842 FILLER_0_17_626
*843 FILLER_0_17_632
*844 FILLER_0_17_64
*845 FILLER_0_17_664
*846 FILLER_0_17_68
*847 FILLER_0_17_680
*848 FILLER_0_17_72
*849 FILLER_0_18_101
*850 FILLER_0_18_107
*851 FILLER_0_18_171
*852 FILLER_0_18_177
*853 FILLER_0_18_241
*854 FILLER_0_18_247
*855 FILLER_0_18_28
*856 FILLER_0_18_311
*857 FILLER_0_18_317
*858 FILLER_0_18_32
*859 FILLER_0_18_34
*860 FILLER_0_18_37
*861 FILLER_0_18_381
*862 FILLER_0_18_387
*863 FILLER_0_18_451
*864 FILLER_0_18_457
*865 FILLER_0_18_521
*866 FILLER_0_18_527
*867 FILLER_0_18_591
*868 FILLER_0_18_597
*869 FILLER_0_18_661
*870 FILLER_0_18_667
*871 FILLER_0_18_683
*872 FILLER_0_18_687
*873 FILLER_0_19_136
*874 FILLER_0_19_142
*875 FILLER_0_19_206
*876 FILLER_0_19_212
*877 FILLER_0_19_276
*878 FILLER_0_19_282
*879 FILLER_0_19_346
*880 FILLER_0_19_352
*881 FILLER_0_19_416
*882 FILLER_0_19_422
*883 FILLER_0_19_486
*884 FILLER_0_19_492
*885 FILLER_0_19_556
*886 FILLER_0_19_562
*887 FILLER_0_19_6
*888 FILLER_0_19_626
*889 FILLER_0_19_632
*890 FILLER_0_19_664
*891 FILLER_0_19_680
*892 FILLER_0_19_72
*893 FILLER_0_1_136
*894 FILLER_0_1_142
*895 FILLER_0_1_2
*896 FILLER_0_1_206
*897 FILLER_0_1_212
*898 FILLER_0_1_228
*899 FILLER_0_1_255
*900 FILLER_0_1_259
*901 FILLER_0_1_275
*902 FILLER_0_1_279
*903 FILLER_0_1_282
*904 FILLER_0_1_286
*905 FILLER_0_1_288
*906 FILLER_0_1_315
*907 FILLER_0_1_319
*908 FILLER_0_1_335
*909 FILLER_0_1_343
*910 FILLER_0_1_347
*911 FILLER_0_1_349
*912 FILLER_0_1_352
*913 FILLER_0_1_356
*914 FILLER_0_1_358
*915 FILLER_0_1_361
*916 FILLER_0_1_365
*917 FILLER_0_1_369
*918 FILLER_0_1_407
*919 FILLER_0_1_411
*920 FILLER_0_1_419
*921 FILLER_0_1_422
*922 FILLER_0_1_438
*923 FILLER_0_1_444
*924 FILLER_0_1_448
*925 FILLER_0_1_477
*926 FILLER_0_1_485
*927 FILLER_0_1_489
*928 FILLER_0_1_492
*929 FILLER_0_1_556
*930 FILLER_0_1_562
*931 FILLER_0_1_626
*932 FILLER_0_1_632
*933 FILLER_0_1_66
*934 FILLER_0_1_664
*935 FILLER_0_1_680
*936 FILLER_0_1_72
*937 FILLER_0_20_101
*938 FILLER_0_20_107
*939 FILLER_0_20_171
*940 FILLER_0_20_177
*941 FILLER_0_20_22
*942 FILLER_0_20_241
*943 FILLER_0_20_247
*944 FILLER_0_20_30
*945 FILLER_0_20_311
*946 FILLER_0_20_317
*947 FILLER_0_20_34
*948 FILLER_0_20_37
*949 FILLER_0_20_381
*950 FILLER_0_20_387
*951 FILLER_0_20_451
*952 FILLER_0_20_457
*953 FILLER_0_20_521
*954 FILLER_0_20_527
*955 FILLER_0_20_591
*956 FILLER_0_20_597
*957 FILLER_0_20_6
*958 FILLER_0_20_661
*959 FILLER_0_20_667
*960 FILLER_0_20_683
*961 FILLER_0_20_687
*962 FILLER_0_21_12
*963 FILLER_0_21_136
*964 FILLER_0_21_142
*965 FILLER_0_21_206
*966 FILLER_0_21_212
*967 FILLER_0_21_276
*968 FILLER_0_21_282
*969 FILLER_0_21_346
*970 FILLER_0_21_352
*971 FILLER_0_21_416
*972 FILLER_0_21_422
*973 FILLER_0_21_44
*974 FILLER_0_21_486
*975 FILLER_0_21_492
*976 FILLER_0_21_556
*977 FILLER_0_21_562
*978 FILLER_0_21_60
*979 FILLER_0_21_626
*980 FILLER_0_21_632
*981 FILLER_0_21_648
*982 FILLER_0_21_656
*983 FILLER_0_21_68
*984 FILLER_0_21_72
*985 FILLER_0_21_8
*986 FILLER_0_22_101
*987 FILLER_0_22_107
*988 FILLER_0_22_171
*989 FILLER_0_22_177
*990 FILLER_0_22_22
*991 FILLER_0_22_241
*992 FILLER_0_22_247
*993 FILLER_0_22_30
*994 FILLER_0_22_311
*995 FILLER_0_22_317
*996 FILLER_0_22_34
*997 FILLER_0_22_37
*998 FILLER_0_22_381
*999 FILLER_0_22_387
*1000 FILLER_0_22_451
*1001 FILLER_0_22_457
*1002 FILLER_0_22_521
*1003 FILLER_0_22_527
*1004 FILLER_0_22_591
*1005 FILLER_0_22_597
*1006 FILLER_0_22_6
*1007 FILLER_0_22_661
*1008 FILLER_0_22_667
*1009 FILLER_0_22_675
*1010 FILLER_0_22_679
*1011 FILLER_0_23_12
*1012 FILLER_0_23_136
*1013 FILLER_0_23_142
*1014 FILLER_0_23_16
*1015 FILLER_0_23_206
*1016 FILLER_0_23_212
*1017 FILLER_0_23_276
*1018 FILLER_0_23_282
*1019 FILLER_0_23_346
*1020 FILLER_0_23_352
*1021 FILLER_0_23_416
*1022 FILLER_0_23_422
*1023 FILLER_0_23_48
*1024 FILLER_0_23_486
*1025 FILLER_0_23_492
*1026 FILLER_0_23_556
*1027 FILLER_0_23_562
*1028 FILLER_0_23_626
*1029 FILLER_0_23_632
*1030 FILLER_0_23_64
*1031 FILLER_0_23_648
*1032 FILLER_0_23_656
*1033 FILLER_0_23_68
*1034 FILLER_0_23_72
*1035 FILLER_0_24_101
*1036 FILLER_0_24_107
*1037 FILLER_0_24_171
*1038 FILLER_0_24_177
*1039 FILLER_0_24_241
*1040 FILLER_0_24_247
*1041 FILLER_0_24_28
*1042 FILLER_0_24_311
*1043 FILLER_0_24_317
*1044 FILLER_0_24_32
*1045 FILLER_0_24_34
*1046 FILLER_0_24_37
*1047 FILLER_0_24_381
*1048 FILLER_0_24_387
*1049 FILLER_0_24_451
*1050 FILLER_0_24_457
*1051 FILLER_0_24_521
*1052 FILLER_0_24_527
*1053 FILLER_0_24_591
*1054 FILLER_0_24_597
*1055 FILLER_0_24_661
*1056 FILLER_0_24_667
*1057 FILLER_0_24_683
*1058 FILLER_0_25_136
*1059 FILLER_0_25_142
*1060 FILLER_0_25_206
*1061 FILLER_0_25_212
*1062 FILLER_0_25_276
*1063 FILLER_0_25_282
*1064 FILLER_0_25_346
*1065 FILLER_0_25_352
*1066 FILLER_0_25_416
*1067 FILLER_0_25_422
*1068 FILLER_0_25_486
*1069 FILLER_0_25_492
*1070 FILLER_0_25_556
*1071 FILLER_0_25_562
*1072 FILLER_0_25_6
*1073 FILLER_0_25_626
*1074 FILLER_0_25_632
*1075 FILLER_0_25_648
*1076 FILLER_0_25_656
*1077 FILLER_0_25_72
*1078 FILLER_0_26_101
*1079 FILLER_0_26_107
*1080 FILLER_0_26_171
*1081 FILLER_0_26_177
*1082 FILLER_0_26_22
*1083 FILLER_0_26_241
*1084 FILLER_0_26_247
*1085 FILLER_0_26_30
*1086 FILLER_0_26_311
*1087 FILLER_0_26_317
*1088 FILLER_0_26_34
*1089 FILLER_0_26_37
*1090 FILLER_0_26_381
*1091 FILLER_0_26_387
*1092 FILLER_0_26_451
*1093 FILLER_0_26_457
*1094 FILLER_0_26_521
*1095 FILLER_0_26_527
*1096 FILLER_0_26_591
*1097 FILLER_0_26_597
*1098 FILLER_0_26_6
*1099 FILLER_0_26_661
*1100 FILLER_0_26_667
*1101 FILLER_0_26_675
*1102 FILLER_0_26_679
*1103 FILLER_0_27_136
*1104 FILLER_0_27_142
*1105 FILLER_0_27_206
*1106 FILLER_0_27_212
*1107 FILLER_0_27_276
*1108 FILLER_0_27_282
*1109 FILLER_0_27_346
*1110 FILLER_0_27_352
*1111 FILLER_0_27_416
*1112 FILLER_0_27_422
*1113 FILLER_0_27_486
*1114 FILLER_0_27_492
*1115 FILLER_0_27_556
*1116 FILLER_0_27_562
*1117 FILLER_0_27_6
*1118 FILLER_0_27_626
*1119 FILLER_0_27_632
*1120 FILLER_0_27_648
*1121 FILLER_0_27_656
*1122 FILLER_0_27_72
*1123 FILLER_0_28_101
*1124 FILLER_0_28_107
*1125 FILLER_0_28_171
*1126 FILLER_0_28_177
*1127 FILLER_0_28_22
*1128 FILLER_0_28_241
*1129 FILLER_0_28_247
*1130 FILLER_0_28_30
*1131 FILLER_0_28_311
*1132 FILLER_0_28_317
*1133 FILLER_0_28_34
*1134 FILLER_0_28_37
*1135 FILLER_0_28_381
*1136 FILLER_0_28_387
*1137 FILLER_0_28_451
*1138 FILLER_0_28_457
*1139 FILLER_0_28_521
*1140 FILLER_0_28_527
*1141 FILLER_0_28_591
*1142 FILLER_0_28_597
*1143 FILLER_0_28_6
*1144 FILLER_0_28_661
*1145 FILLER_0_28_667
*1146 FILLER_0_28_683
*1147 FILLER_0_28_687
*1148 FILLER_0_29_136
*1149 FILLER_0_29_142
*1150 FILLER_0_29_206
*1151 FILLER_0_29_212
*1152 FILLER_0_29_276
*1153 FILLER_0_29_282
*1154 FILLER_0_29_346
*1155 FILLER_0_29_352
*1156 FILLER_0_29_416
*1157 FILLER_0_29_422
*1158 FILLER_0_29_486
*1159 FILLER_0_29_492
*1160 FILLER_0_29_556
*1161 FILLER_0_29_562
*1162 FILLER_0_29_6
*1163 FILLER_0_29_626
*1164 FILLER_0_29_632
*1165 FILLER_0_29_648
*1166 FILLER_0_29_656
*1167 FILLER_0_29_72
*1168 FILLER_0_2_101
*1169 FILLER_0_2_107
*1170 FILLER_0_2_171
*1171 FILLER_0_2_177
*1172 FILLER_0_2_2
*1173 FILLER_0_2_241
*1174 FILLER_0_2_247
*1175 FILLER_0_2_311
*1176 FILLER_0_2_317
*1177 FILLER_0_2_34
*1178 FILLER_0_2_349
*1179 FILLER_0_2_365
*1180 FILLER_0_2_37
*1181 FILLER_0_2_373
*1182 FILLER_0_2_376
*1183 FILLER_0_2_384
*1184 FILLER_0_2_387
*1185 FILLER_0_2_451
*1186 FILLER_0_2_457
*1187 FILLER_0_2_521
*1188 FILLER_0_2_527
*1189 FILLER_0_2_591
*1190 FILLER_0_2_597
*1191 FILLER_0_2_661
*1192 FILLER_0_2_667
*1193 FILLER_0_2_683
*1194 FILLER_0_2_687
*1195 FILLER_0_30_10
*1196 FILLER_0_30_101
*1197 FILLER_0_30_107
*1198 FILLER_0_30_171
*1199 FILLER_0_30_177
*1200 FILLER_0_30_241
*1201 FILLER_0_30_247
*1202 FILLER_0_30_26
*1203 FILLER_0_30_311
*1204 FILLER_0_30_317
*1205 FILLER_0_30_34
*1206 FILLER_0_30_37
*1207 FILLER_0_30_381
*1208 FILLER_0_30_387
*1209 FILLER_0_30_451
*1210 FILLER_0_30_457
*1211 FILLER_0_30_521
*1212 FILLER_0_30_527
*1213 FILLER_0_30_591
*1214 FILLER_0_30_597
*1215 FILLER_0_30_661
*1216 FILLER_0_30_667
*1217 FILLER_0_30_675
*1218 FILLER_0_31_136
*1219 FILLER_0_31_142
*1220 FILLER_0_31_206
*1221 FILLER_0_31_212
*1222 FILLER_0_31_276
*1223 FILLER_0_31_282
*1224 FILLER_0_31_346
*1225 FILLER_0_31_352
*1226 FILLER_0_31_416
*1227 FILLER_0_31_422
*1228 FILLER_0_31_486
*1229 FILLER_0_31_492
*1230 FILLER_0_31_556
*1231 FILLER_0_31_562
*1232 FILLER_0_31_6
*1233 FILLER_0_31_626
*1234 FILLER_0_31_632
*1235 FILLER_0_31_664
*1236 FILLER_0_31_680
*1237 FILLER_0_31_72
*1238 FILLER_0_32_101
*1239 FILLER_0_32_107
*1240 FILLER_0_32_171
*1241 FILLER_0_32_177
*1242 FILLER_0_32_241
*1243 FILLER_0_32_247
*1244 FILLER_0_32_28
*1245 FILLER_0_32_311
*1246 FILLER_0_32_317
*1247 FILLER_0_32_32
*1248 FILLER_0_32_34
*1249 FILLER_0_32_37
*1250 FILLER_0_32_381
*1251 FILLER_0_32_387
*1252 FILLER_0_32_451
*1253 FILLER_0_32_457
*1254 FILLER_0_32_521
*1255 FILLER_0_32_527
*1256 FILLER_0_32_591
*1257 FILLER_0_32_597
*1258 FILLER_0_32_661
*1259 FILLER_0_32_667
*1260 FILLER_0_32_683
*1261 FILLER_0_33_136
*1262 FILLER_0_33_142
*1263 FILLER_0_33_206
*1264 FILLER_0_33_212
*1265 FILLER_0_33_276
*1266 FILLER_0_33_282
*1267 FILLER_0_33_346
*1268 FILLER_0_33_352
*1269 FILLER_0_33_416
*1270 FILLER_0_33_422
*1271 FILLER_0_33_486
*1272 FILLER_0_33_492
*1273 FILLER_0_33_556
*1274 FILLER_0_33_562
*1275 FILLER_0_33_6
*1276 FILLER_0_33_626
*1277 FILLER_0_33_632
*1278 FILLER_0_33_664
*1279 FILLER_0_33_680
*1280 FILLER_0_33_72
*1281 FILLER_0_34_101
*1282 FILLER_0_34_107
*1283 FILLER_0_34_171
*1284 FILLER_0_34_177
*1285 FILLER_0_34_241
*1286 FILLER_0_34_247
*1287 FILLER_0_34_28
*1288 FILLER_0_34_311
*1289 FILLER_0_34_317
*1290 FILLER_0_34_32
*1291 FILLER_0_34_34
*1292 FILLER_0_34_37
*1293 FILLER_0_34_381
*1294 FILLER_0_34_387
*1295 FILLER_0_34_451
*1296 FILLER_0_34_457
*1297 FILLER_0_34_521
*1298 FILLER_0_34_527
*1299 FILLER_0_34_591
*1300 FILLER_0_34_597
*1301 FILLER_0_34_661
*1302 FILLER_0_34_667
*1303 FILLER_0_34_683
*1304 FILLER_0_35_12
*1305 FILLER_0_35_136
*1306 FILLER_0_35_142
*1307 FILLER_0_35_16
*1308 FILLER_0_35_206
*1309 FILLER_0_35_212
*1310 FILLER_0_35_276
*1311 FILLER_0_35_282
*1312 FILLER_0_35_346
*1313 FILLER_0_35_352
*1314 FILLER_0_35_416
*1315 FILLER_0_35_422
*1316 FILLER_0_35_48
*1317 FILLER_0_35_486
*1318 FILLER_0_35_492
*1319 FILLER_0_35_556
*1320 FILLER_0_35_562
*1321 FILLER_0_35_626
*1322 FILLER_0_35_632
*1323 FILLER_0_35_64
*1324 FILLER_0_35_648
*1325 FILLER_0_35_656
*1326 FILLER_0_35_68
*1327 FILLER_0_35_72
*1328 FILLER_0_36_101
*1329 FILLER_0_36_107
*1330 FILLER_0_36_171
*1331 FILLER_0_36_177
*1332 FILLER_0_36_241
*1333 FILLER_0_36_247
*1334 FILLER_0_36_28
*1335 FILLER_0_36_311
*1336 FILLER_0_36_317
*1337 FILLER_0_36_32
*1338 FILLER_0_36_34
*1339 FILLER_0_36_37
*1340 FILLER_0_36_381
*1341 FILLER_0_36_387
*1342 FILLER_0_36_451
*1343 FILLER_0_36_457
*1344 FILLER_0_36_521
*1345 FILLER_0_36_527
*1346 FILLER_0_36_591
*1347 FILLER_0_36_597
*1348 FILLER_0_36_661
*1349 FILLER_0_36_667
*1350 FILLER_0_36_675
*1351 FILLER_0_36_679
*1352 FILLER_0_37_12
*1353 FILLER_0_37_136
*1354 FILLER_0_37_142
*1355 FILLER_0_37_206
*1356 FILLER_0_37_212
*1357 FILLER_0_37_276
*1358 FILLER_0_37_282
*1359 FILLER_0_37_346
*1360 FILLER_0_37_352
*1361 FILLER_0_37_368
*1362 FILLER_0_37_372
*1363 FILLER_0_37_374
*1364 FILLER_0_37_383
*1365 FILLER_0_37_387
*1366 FILLER_0_37_419
*1367 FILLER_0_37_422
*1368 FILLER_0_37_44
*1369 FILLER_0_37_486
*1370 FILLER_0_37_492
*1371 FILLER_0_37_556
*1372 FILLER_0_37_562
*1373 FILLER_0_37_60
*1374 FILLER_0_37_626
*1375 FILLER_0_37_632
*1376 FILLER_0_37_664
*1377 FILLER_0_37_68
*1378 FILLER_0_37_680
*1379 FILLER_0_37_72
*1380 FILLER_0_37_8
*1381 FILLER_0_38_101
*1382 FILLER_0_38_107
*1383 FILLER_0_38_171
*1384 FILLER_0_38_177
*1385 FILLER_0_38_22
*1386 FILLER_0_38_241
*1387 FILLER_0_38_247
*1388 FILLER_0_38_30
*1389 FILLER_0_38_311
*1390 FILLER_0_38_317
*1391 FILLER_0_38_333
*1392 FILLER_0_38_34
*1393 FILLER_0_38_341
*1394 FILLER_0_38_345
*1395 FILLER_0_38_347
*1396 FILLER_0_38_356
*1397 FILLER_0_38_360
*1398 FILLER_0_38_37
*1399 FILLER_0_38_376
*1400 FILLER_0_38_384
*1401 FILLER_0_38_387
*1402 FILLER_0_38_451
*1403 FILLER_0_38_457
*1404 FILLER_0_38_521
*1405 FILLER_0_38_527
*1406 FILLER_0_38_591
*1407 FILLER_0_38_597
*1408 FILLER_0_38_6
*1409 FILLER_0_38_661
*1410 FILLER_0_38_667
*1411 FILLER_0_38_683
*1412 FILLER_0_39_136
*1413 FILLER_0_39_142
*1414 FILLER_0_39_206
*1415 FILLER_0_39_212
*1416 FILLER_0_39_276
*1417 FILLER_0_39_282
*1418 FILLER_0_39_290
*1419 FILLER_0_39_292
*1420 FILLER_0_39_303
*1421 FILLER_0_39_335
*1422 FILLER_0_39_343
*1423 FILLER_0_39_347
*1424 FILLER_0_39_349
*1425 FILLER_0_39_352
*1426 FILLER_0_39_384
*1427 FILLER_0_39_392
*1428 FILLER_0_39_396
*1429 FILLER_0_39_406
*1430 FILLER_0_39_410
*1431 FILLER_0_39_418
*1432 FILLER_0_39_422
*1433 FILLER_0_39_486
*1434 FILLER_0_39_492
*1435 FILLER_0_39_556
*1436 FILLER_0_39_562
*1437 FILLER_0_39_6
*1438 FILLER_0_39_626
*1439 FILLER_0_39_632
*1440 FILLER_0_39_664
*1441 FILLER_0_39_72
*1442 FILLER_0_3_136
*1443 FILLER_0_3_142
*1444 FILLER_0_3_2
*1445 FILLER_0_3_206
*1446 FILLER_0_3_212
*1447 FILLER_0_3_276
*1448 FILLER_0_3_282
*1449 FILLER_0_3_346
*1450 FILLER_0_3_352
*1451 FILLER_0_3_416
*1452 FILLER_0_3_422
*1453 FILLER_0_3_486
*1454 FILLER_0_3_492
*1455 FILLER_0_3_556
*1456 FILLER_0_3_562
*1457 FILLER_0_3_626
*1458 FILLER_0_3_632
*1459 FILLER_0_3_66
*1460 FILLER_0_3_664
*1461 FILLER_0_3_680
*1462 FILLER_0_3_72
*1463 FILLER_0_40_101
*1464 FILLER_0_40_107
*1465 FILLER_0_40_12
*1466 FILLER_0_40_171
*1467 FILLER_0_40_177
*1468 FILLER_0_40_241
*1469 FILLER_0_40_247
*1470 FILLER_0_40_28
*1471 FILLER_0_40_311
*1472 FILLER_0_40_317
*1473 FILLER_0_40_32
*1474 FILLER_0_40_34
*1475 FILLER_0_40_37
*1476 FILLER_0_40_381
*1477 FILLER_0_40_395
*1478 FILLER_0_40_427
*1479 FILLER_0_40_443
*1480 FILLER_0_40_451
*1481 FILLER_0_40_457
*1482 FILLER_0_40_521
*1483 FILLER_0_40_527
*1484 FILLER_0_40_591
*1485 FILLER_0_40_597
*1486 FILLER_0_40_661
*1487 FILLER_0_40_667
*1488 FILLER_0_40_683
*1489 FILLER_0_40_8
*1490 FILLER_0_41_136
*1491 FILLER_0_41_142
*1492 FILLER_0_41_206
*1493 FILLER_0_41_212
*1494 FILLER_0_41_276
*1495 FILLER_0_41_282
*1496 FILLER_0_41_286
*1497 FILLER_0_41_295
*1498 FILLER_0_41_327
*1499 FILLER_0_41_335
*1500 FILLER_0_41_339
*1501 FILLER_0_41_348
*1502 FILLER_0_41_352
*1503 FILLER_0_41_356
*1504 FILLER_0_41_380
*1505 FILLER_0_41_384
*1506 FILLER_0_41_416
*1507 FILLER_0_41_422
*1508 FILLER_0_41_486
*1509 FILLER_0_41_492
*1510 FILLER_0_41_556
*1511 FILLER_0_41_562
*1512 FILLER_0_41_6
*1513 FILLER_0_41_626
*1514 FILLER_0_41_632
*1515 FILLER_0_41_664
*1516 FILLER_0_41_680
*1517 FILLER_0_41_72
*1518 FILLER_0_42_101
*1519 FILLER_0_42_107
*1520 FILLER_0_42_12
*1521 FILLER_0_42_16
*1522 FILLER_0_42_171
*1523 FILLER_0_42_177
*1524 FILLER_0_42_241
*1525 FILLER_0_42_247
*1526 FILLER_0_42_279
*1527 FILLER_0_42_287
*1528 FILLER_0_42_291
*1529 FILLER_0_42_302
*1530 FILLER_0_42_310
*1531 FILLER_0_42_314
*1532 FILLER_0_42_317
*1533 FILLER_0_42_32
*1534 FILLER_0_42_34
*1535 FILLER_0_42_37
*1536 FILLER_0_42_381
*1537 FILLER_0_42_387
*1538 FILLER_0_42_451
*1539 FILLER_0_42_457
*1540 FILLER_0_42_521
*1541 FILLER_0_42_527
*1542 FILLER_0_42_591
*1543 FILLER_0_42_597
*1544 FILLER_0_42_661
*1545 FILLER_0_42_667
*1546 FILLER_0_42_675
*1547 FILLER_0_42_679
*1548 FILLER_0_43_12
*1549 FILLER_0_43_136
*1550 FILLER_0_43_142
*1551 FILLER_0_43_206
*1552 FILLER_0_43_212
*1553 FILLER_0_43_276
*1554 FILLER_0_43_282
*1555 FILLER_0_43_286
*1556 FILLER_0_43_297
*1557 FILLER_0_43_329
*1558 FILLER_0_43_345
*1559 FILLER_0_43_349
*1560 FILLER_0_43_352
*1561 FILLER_0_43_416