*SPEF "ieee 1481-1999"
*DESIGN "cells7"
*DATE "11:11:11 Fri 11 11, 1111"
*VENDOR "OpenRCX"
*PROGRAM "Parallel Extraction"
*VERSION "1.0"
*DESIGN_FLOW "NAME_SCOPE LOCAL" "PIN_CAP NONE"
*DIVIDER /
*DELIMITER :
*BUS_DELIMITER []
*T_UNIT 1 NS
*C_UNIT 1 PF
*R_UNIT 1 OHM
*L_UNIT 1 HENRY

*NAME_MAP
*1 clk
*2 in[0]
*3 in[10]
*4 in[11]
*5 in[12]
*6 in[13]
*7 in[14]
*8 in[15]
*9 in[16]
*10 in[17]
*11 in[1]
*12 in[2]
*13 in[3]
*14 in[4]
*15 in[5]
*16 in[6]
*17 in[7]
*18 in[8]
*19 in[9]
*20 out[0]
*21 net318
*22 net319
*23 out[1]
*24 out[2]
*25 out[3]
*26 out[4]
*27 out[5]
*28 out[6]
*29 out[7]
*30 net316
*31 net317
*32 rst_n
*35 _000_
*36 _001_
*37 _002_
*38 _003_
*39 _004_
*40 _005_
*41 _006_
*42 _007_
*43 _008_
*44 _009_
*45 _010_
*46 _011_
*47 _012_
*48 _013_
*49 _014_
*50 _015_
*51 _016_
*52 _017_
*53 _018_
*54 _019_
*55 _020_
*56 _021_
*57 _022_
*58 _023_
*59 _024_
*60 _025_
*61 _026_
*62 _027_
*63 _028_
*64 _029_
*65 _030_
*66 _031_
*67 _032_
*68 _033_
*69 _034_
*70 _035_
*71 _036_
*72 _037_
*73 _038_
*74 _039_
*75 _040_
*76 _041_
*77 _042_
*78 _043_
*79 _044_
*80 _045_
*81 _046_
*82 _047_
*83 _048_
*84 _049_
*85 _050_
*86 _051_
*87 _052_
*88 _053_
*89 _054_
*90 _055_
*91 _056_
*92 _057_
*93 _058_
*94 _059_
*95 _060_
*96 _061_
*97 _062_
*98 _063_
*99 _064_
*100 _065_
*101 _066_
*102 _067_
*103 _068_
*104 _069_
*105 _070_
*106 _071_
*107 _072_
*108 _073_
*109 _074_
*110 _075_
*111 _076_
*112 _077_
*113 _078_
*114 _079_
*115 _080_
*116 _081_
*117 _082_
*118 _083_
*119 _084_
*120 _085_
*121 _086_
*122 _087_
*123 _088_
*124 _089_
*125 _090_
*126 _091_
*127 _092_
*128 _093_
*129 _094_
*130 _095_
*131 _096_
*132 _097_
*133 _098_
*134 _099_
*135 _100_
*136 _101_
*137 _102_
*138 _103_
*139 _104_
*140 _105_
*141 _106_
*142 _107_
*143 _108_
*144 _109_
*145 _110_
*146 _111_
*147 _112_
*148 _113_
*149 _114_
*150 _115_
*151 _116_
*152 _117_
*153 _118_
*154 _119_
*155 _120_
*156 _121_
*157 _122_
*158 _123_
*159 _124_
*160 _125_
*161 _126_
*162 _127_
*163 _128_
*164 _129_
*165 _130_
*166 _131_
*167 _132_
*168 _133_
*169 _134_
*170 _135_
*171 _136_
*172 _137_
*173 _138_
*174 _139_
*175 _140_
*176 _141_
*177 _142_
*178 _143_
*179 _144_
*180 _145_
*181 _146_
*182 _147_
*183 _148_
*184 _149_
*185 _150_
*186 _151_
*187 _152_
*188 _153_
*189 _154_
*190 _155_
*191 _156_
*192 _157_
*193 _158_
*194 _159_
*195 _160_
*196 _161_
*197 _162_
*198 _163_
*199 _164_
*200 _165_
*201 _166_
*202 _167_
*203 _168_
*204 _169_
*205 _170_
*206 _171_
*207 _172_
*208 _173_
*209 _174_
*210 _175_
*211 _176_
*212 _177_
*213 _178_
*214 _179_
*215 _180_
*216 _181_
*217 _182_
*218 _183_
*219 _184_
*220 _185_
*221 _186_
*222 _187_
*223 _188_
*224 _189_
*225 _190_
*226 _191_
*227 _192_
*228 _193_
*229 _194_
*230 _195_
*231 _196_
*232 _197_
*233 _198_
*234 _199_
*235 _200_
*236 _201_
*237 _202_
*238 _203_
*239 _204_
*240 _205_
*241 _206_
*242 _207_
*243 _208_
*244 _209_
*245 _210_
*246 _211_
*247 _212_
*248 _213_
*249 _214_
*250 _215_
*251 _216_
*252 _217_
*253 _218_
*254 _219_
*255 _220_
*256 _221_
*257 _222_
*258 _223_
*259 _224_
*260 _225_
*261 _226_
*262 _227_
*263 _228_
*264 _229_
*265 _230_
*266 _231_
*267 _232_
*268 _233_
*269 _234_
*270 _235_
*271 _236_
*272 _237_
*273 _238_
*274 _239_
*275 _240_
*276 _241_
*277 cm_inst\.cc_inst\.in\[0\]
*278 cm_inst\.cc_inst\.in\[1\]
*279 cm_inst\.cc_inst\.in\[2\]
*280 cm_inst\.cc_inst\.in\[3\]
*281 cm_inst\.cc_inst\.in\[4\]
*282 cm_inst\.cc_inst\.in\[5\]
*283 cm_inst\.cc_inst\.out_notouch_\[0\]
*284 cm_inst\.cc_inst\.out_notouch_\[100\]
*285 cm_inst\.cc_inst\.out_notouch_\[101\]
*286 cm_inst\.cc_inst\.out_notouch_\[102\]
*287 cm_inst\.cc_inst\.out_notouch_\[103\]
*288 cm_inst\.cc_inst\.out_notouch_\[104\]
*289 cm_inst\.cc_inst\.out_notouch_\[105\]
*290 cm_inst\.cc_inst\.out_notouch_\[106\]
*291 cm_inst\.cc_inst\.out_notouch_\[107\]
*292 cm_inst\.cc_inst\.out_notouch_\[108\]
*293 cm_inst\.cc_inst\.out_notouch_\[109\]
*294 cm_inst\.cc_inst\.out_notouch_\[10\]
*295 cm_inst\.cc_inst\.out_notouch_\[110\]
*296 cm_inst\.cc_inst\.out_notouch_\[111\]
*297 cm_inst\.cc_inst\.out_notouch_\[112\]
*298 cm_inst\.cc_inst\.out_notouch_\[113\]
*299 cm_inst\.cc_inst\.out_notouch_\[114\]
*300 cm_inst\.cc_inst\.out_notouch_\[115\]
*301 cm_inst\.cc_inst\.out_notouch_\[116\]
*302 cm_inst\.cc_inst\.out_notouch_\[117\]
*303 cm_inst\.cc_inst\.out_notouch_\[118\]
*304 cm_inst\.cc_inst\.out_notouch_\[119\]
*305 cm_inst\.cc_inst\.out_notouch_\[11\]
*306 cm_inst\.cc_inst\.out_notouch_\[120\]
*307 cm_inst\.cc_inst\.out_notouch_\[121\]
*308 cm_inst\.cc_inst\.out_notouch_\[122\]
*309 cm_inst\.cc_inst\.out_notouch_\[123\]
*310 cm_inst\.cc_inst\.out_notouch_\[124\]
*311 cm_inst\.cc_inst\.out_notouch_\[125\]
*312 cm_inst\.cc_inst\.out_notouch_\[126\]
*313 cm_inst\.cc_inst\.out_notouch_\[127\]
*314 cm_inst\.cc_inst\.out_notouch_\[128\]
*315 cm_inst\.cc_inst\.out_notouch_\[129\]
*316 cm_inst\.cc_inst\.out_notouch_\[12\]
*317 cm_inst\.cc_inst\.out_notouch_\[130\]
*318 cm_inst\.cc_inst\.out_notouch_\[131\]
*319 cm_inst\.cc_inst\.out_notouch_\[132\]
*320 cm_inst\.cc_inst\.out_notouch_\[133\]
*321 cm_inst\.cc_inst\.out_notouch_\[134\]
*322 cm_inst\.cc_inst\.out_notouch_\[135\]
*323 cm_inst\.cc_inst\.out_notouch_\[136\]
*324 cm_inst\.cc_inst\.out_notouch_\[137\]
*325 cm_inst\.cc_inst\.out_notouch_\[138\]
*326 cm_inst\.cc_inst\.out_notouch_\[139\]
*327 cm_inst\.cc_inst\.out_notouch_\[13\]
*328 cm_inst\.cc_inst\.out_notouch_\[140\]
*329 cm_inst\.cc_inst\.out_notouch_\[141\]
*330 cm_inst\.cc_inst\.out_notouch_\[142\]
*331 cm_inst\.cc_inst\.out_notouch_\[143\]
*332 cm_inst\.cc_inst\.out_notouch_\[144\]
*333 cm_inst\.cc_inst\.out_notouch_\[145\]
*334 cm_inst\.cc_inst\.out_notouch_\[146\]
*335 cm_inst\.cc_inst\.out_notouch_\[147\]
*336 cm_inst\.cc_inst\.out_notouch_\[148\]
*337 cm_inst\.cc_inst\.out_notouch_\[149\]
*338 cm_inst\.cc_inst\.out_notouch_\[14\]
*339 cm_inst\.cc_inst\.out_notouch_\[150\]
*340 cm_inst\.cc_inst\.out_notouch_\[151\]
*341 cm_inst\.cc_inst\.out_notouch_\[152\]
*342 cm_inst\.cc_inst\.out_notouch_\[153\]
*343 cm_inst\.cc_inst\.out_notouch_\[154\]
*344 cm_inst\.cc_inst\.out_notouch_\[155\]
*345 cm_inst\.cc_inst\.out_notouch_\[156\]
*346 cm_inst\.cc_inst\.out_notouch_\[157\]
*347 cm_inst\.cc_inst\.out_notouch_\[158\]
*348 cm_inst\.cc_inst\.out_notouch_\[159\]
*349 cm_inst\.cc_inst\.out_notouch_\[15\]
*350 cm_inst\.cc_inst\.out_notouch_\[160\]
*351 cm_inst\.cc_inst\.out_notouch_\[161\]
*352 cm_inst\.cc_inst\.out_notouch_\[162\]
*353 cm_inst\.cc_inst\.out_notouch_\[163\]
*354 cm_inst\.cc_inst\.out_notouch_\[164\]
*355 cm_inst\.cc_inst\.out_notouch_\[165\]
*356 cm_inst\.cc_inst\.out_notouch_\[166\]
*357 cm_inst\.cc_inst\.out_notouch_\[167\]
*358 cm_inst\.cc_inst\.out_notouch_\[168\]
*359 cm_inst\.cc_inst\.out_notouch_\[169\]
*360 cm_inst\.cc_inst\.out_notouch_\[16\]
*361 cm_inst\.cc_inst\.out_notouch_\[170\]
*362 cm_inst\.cc_inst\.out_notouch_\[171\]
*363 cm_inst\.cc_inst\.out_notouch_\[172\]
*364 cm_inst\.cc_inst\.out_notouch_\[173\]
*365 cm_inst\.cc_inst\.out_notouch_\[174\]
*366 cm_inst\.cc_inst\.out_notouch_\[175\]
*367 cm_inst\.cc_inst\.out_notouch_\[176\]
*368 cm_inst\.cc_inst\.out_notouch_\[177\]
*369 cm_inst\.cc_inst\.out_notouch_\[178\]
*370 cm_inst\.cc_inst\.out_notouch_\[179\]
*371 cm_inst\.cc_inst\.out_notouch_\[17\]
*372 cm_inst\.cc_inst\.out_notouch_\[180\]
*373 cm_inst\.cc_inst\.out_notouch_\[181\]
*374 cm_inst\.cc_inst\.out_notouch_\[182\]
*375 cm_inst\.cc_inst\.out_notouch_\[183\]
*376 cm_inst\.cc_inst\.out_notouch_\[184\]
*377 cm_inst\.cc_inst\.out_notouch_\[185\]
*378 cm_inst\.cc_inst\.out_notouch_\[186\]
*379 cm_inst\.cc_inst\.out_notouch_\[187\]
*380 cm_inst\.cc_inst\.out_notouch_\[188\]
*381 cm_inst\.cc_inst\.out_notouch_\[189\]
*382 cm_inst\.cc_inst\.out_notouch_\[18\]
*383 cm_inst\.cc_inst\.out_notouch_\[190\]
*384 cm_inst\.cc_inst\.out_notouch_\[191\]
*385 cm_inst\.cc_inst\.out_notouch_\[192\]
*386 cm_inst\.cc_inst\.out_notouch_\[193\]
*387 cm_inst\.cc_inst\.out_notouch_\[194\]
*388 cm_inst\.cc_inst\.out_notouch_\[195\]
*389 cm_inst\.cc_inst\.out_notouch_\[196\]
*390 cm_inst\.cc_inst\.out_notouch_\[197\]
*391 cm_inst\.cc_inst\.out_notouch_\[198\]
*392 cm_inst\.cc_inst\.out_notouch_\[199\]
*393 cm_inst\.cc_inst\.out_notouch_\[19\]
*394 cm_inst\.cc_inst\.out_notouch_\[1\]
*395 cm_inst\.cc_inst\.out_notouch_\[200\]
*396 cm_inst\.cc_inst\.out_notouch_\[201\]
*397 cm_inst\.cc_inst\.out_notouch_\[202\]
*398 cm_inst\.cc_inst\.out_notouch_\[203\]
*399 cm_inst\.cc_inst\.out_notouch_\[204\]
*400 cm_inst\.cc_inst\.out_notouch_\[205\]
*401 cm_inst\.cc_inst\.out_notouch_\[206\]
*402 cm_inst\.cc_inst\.out_notouch_\[207\]
*403 cm_inst\.cc_inst\.out_notouch_\[208\]
*404 cm_inst\.cc_inst\.out_notouch_\[209\]
*405 cm_inst\.cc_inst\.out_notouch_\[20\]
*406 cm_inst\.cc_inst\.out_notouch_\[21\]
*407 cm_inst\.cc_inst\.out_notouch_\[22\]
*408 cm_inst\.cc_inst\.out_notouch_\[23\]
*409 cm_inst\.cc_inst\.out_notouch_\[24\]
*410 cm_inst\.cc_inst\.out_notouch_\[25\]
*411 cm_inst\.cc_inst\.out_notouch_\[26\]
*412 cm_inst\.cc_inst\.out_notouch_\[27\]
*413 cm_inst\.cc_inst\.out_notouch_\[28\]
*414 cm_inst\.cc_inst\.out_notouch_\[29\]
*415 cm_inst\.cc_inst\.out_notouch_\[2\]
*416 cm_inst\.cc_inst\.out_notouch_\[30\]
*417 cm_inst\.cc_inst\.out_notouch_\[31\]
*418 cm_inst\.cc_inst\.out_notouch_\[32\]
*419 cm_inst\.cc_inst\.out_notouch_\[33\]
*420 cm_inst\.cc_inst\.out_notouch_\[34\]
*421 cm_inst\.cc_inst\.out_notouch_\[35\]
*422 cm_inst\.cc_inst\.out_notouch_\[36\]
*423 cm_inst\.cc_inst\.out_notouch_\[37\]
*424 cm_inst\.cc_inst\.out_notouch_\[38\]
*425 cm_inst\.cc_inst\.out_notouch_\[39\]
*426 cm_inst\.cc_inst\.out_notouch_\[3\]
*427 cm_inst\.cc_inst\.out_notouch_\[40\]
*428 cm_inst\.cc_inst\.out_notouch_\[41\]
*429 cm_inst\.cc_inst\.out_notouch_\[42\]
*430 cm_inst\.cc_inst\.out_notouch_\[43\]
*431 cm_inst\.cc_inst\.out_notouch_\[44\]
*432 cm_inst\.cc_inst\.out_notouch_\[45\]
*433 cm_inst\.cc_inst\.out_notouch_\[46\]
*434 cm_inst\.cc_inst\.out_notouch_\[47\]
*435 cm_inst\.cc_inst\.out_notouch_\[48\]
*436 cm_inst\.cc_inst\.out_notouch_\[49\]
*437 cm_inst\.cc_inst\.out_notouch_\[4\]
*438 cm_inst\.cc_inst\.out_notouch_\[50\]
*439 cm_inst\.cc_inst\.out_notouch_\[51\]
*440 cm_inst\.cc_inst\.out_notouch_\[52\]
*441 cm_inst\.cc_inst\.out_notouch_\[53\]
*442 cm_inst\.cc_inst\.out_notouch_\[54\]
*443 cm_inst\.cc_inst\.out_notouch_\[55\]
*444 cm_inst\.cc_inst\.out_notouch_\[56\]
*445 cm_inst\.cc_inst\.out_notouch_\[57\]
*446 cm_inst\.cc_inst\.out_notouch_\[58\]
*447 cm_inst\.cc_inst\.out_notouch_\[59\]
*448 cm_inst\.cc_inst\.out_notouch_\[5\]
*449 cm_inst\.cc_inst\.out_notouch_\[60\]
*450 cm_inst\.cc_inst\.out_notouch_\[61\]
*451 cm_inst\.cc_inst\.out_notouch_\[62\]
*452 cm_inst\.cc_inst\.out_notouch_\[63\]
*453 cm_inst\.cc_inst\.out_notouch_\[64\]
*454 cm_inst\.cc_inst\.out_notouch_\[65\]
*455 cm_inst\.cc_inst\.out_notouch_\[66\]
*456 cm_inst\.cc_inst\.out_notouch_\[67\]
*457 cm_inst\.cc_inst\.out_notouch_\[68\]
*458 cm_inst\.cc_inst\.out_notouch_\[69\]
*459 cm_inst\.cc_inst\.out_notouch_\[6\]
*460 cm_inst\.cc_inst\.out_notouch_\[70\]
*461 cm_inst\.cc_inst\.out_notouch_\[71\]
*462 cm_inst\.cc_inst\.out_notouch_\[72\]
*463 cm_inst\.cc_inst\.out_notouch_\[73\]
*464 cm_inst\.cc_inst\.out_notouch_\[74\]
*465 cm_inst\.cc_inst\.out_notouch_\[75\]
*466 cm_inst\.cc_inst\.out_notouch_\[76\]
*467 cm_inst\.cc_inst\.out_notouch_\[77\]
*468 cm_inst\.cc_inst\.out_notouch_\[78\]
*469 cm_inst\.cc_inst\.out_notouch_\[79\]
*470 cm_inst\.cc_inst\.out_notouch_\[7\]
*471 cm_inst\.cc_inst\.out_notouch_\[80\]
*472 cm_inst\.cc_inst\.out_notouch_\[81\]
*473 cm_inst\.cc_inst\.out_notouch_\[82\]
*474 cm_inst\.cc_inst\.out_notouch_\[83\]
*475 cm_inst\.cc_inst\.out_notouch_\[84\]
*476 cm_inst\.cc_inst\.out_notouch_\[85\]
*477 cm_inst\.cc_inst\.out_notouch_\[86\]
*478 cm_inst\.cc_inst\.out_notouch_\[87\]
*479 cm_inst\.cc_inst\.out_notouch_\[88\]
*480 cm_inst\.cc_inst\.out_notouch_\[89\]
*481 cm_inst\.cc_inst\.out_notouch_\[8\]
*482 cm_inst\.cc_inst\.out_notouch_\[90\]
*483 cm_inst\.cc_inst\.out_notouch_\[91\]
*484 cm_inst\.cc_inst\.out_notouch_\[92\]
*485 cm_inst\.cc_inst\.out_notouch_\[93\]
*486 cm_inst\.cc_inst\.out_notouch_\[94\]
*487 cm_inst\.cc_inst\.out_notouch_\[95\]
*488 cm_inst\.cc_inst\.out_notouch_\[96\]
*489 cm_inst\.cc_inst\.out_notouch_\[97\]
*490 cm_inst\.cc_inst\.out_notouch_\[98\]
*491 cm_inst\.cc_inst\.out_notouch_\[99\]
*492 cm_inst\.cc_inst\.out_notouch_\[9\]
*493 cm_inst\.page\[0\]
*494 cm_inst\.page\[1\]
*495 cm_inst\.page\[2\]
*496 cm_inst\.page\[3\]
*497 cm_inst\.page\[4\]
*498 cm_inst\.page\[5\]
*499 net1
*500 net10
*501 net100
*502 net101
*503 net102
*504 net103
*505 net104
*506 net105
*507 net106
*508 net107
*509 net108
*510 net109
*511 net11
*512 net110
*513 net111
*514 net112
*515 net113
*516 net114
*517 net115
*518 net116
*519 net117
*520 net118
*521 net119
*522 net12
*523 net120
*524 net121
*525 net122
*526 net123
*527 net124
*528 net125
*529 net126
*530 net127
*531 net128
*532 net129
*533 net13
*534 net130
*535 net131
*536 net132
*537 net133
*538 net134
*539 net135
*540 net136
*541 net137
*542 net138
*543 net139
*544 net14
*545 net140
*546 net141
*547 net142
*548 net143
*549 net144
*550 net145
*551 net146
*552 net147
*553 net148
*554 net149
*555 net15
*556 net150
*557 net151
*558 net152
*559 net153
*560 net154
*561 net155
*562 net156
*563 net157
*564 net158
*565 net159
*566 net16
*567 net160
*568 net161
*569 net162
*570 net163
*571 net164
*572 net165
*573 net166
*574 net167
*575 net168
*576 net169
*577 net17
*578 net170
*579 net171
*580 net172
*581 net173
*582 net174
*583 net175
*584 net176
*585 net177
*586 net178
*587 net179
*588 net18
*589 net180
*590 net181
*591 net182
*592 net183
*593 net184
*594 net185
*595 net186
*596 net187
*597 net188
*598 net189
*599 net19
*600 net190
*601 net191
*602 net192
*603 net193
*604 net194
*605 net195
*606 net196
*607 net197
*608 net198
*609 net199
*610 net2
*611 net20
*612 net200
*613 net201
*614 net202
*615 net203
*616 net204
*617 net205
*618 net206
*619 net207
*620 net208
*621 net209
*622 net21
*623 net210
*624 net211
*625 net212
*626 net213
*627 net214
*628 net215
*629 net216
*630 net217
*631 net218
*632 net219
*633 net22
*634 net220
*635 net221
*636 net222
*637 net223
*638 net224
*639 net225
*640 net226
*641 net227
*642 net228
*643 net229
*644 net23
*645 net230
*646 net231
*647 net232
*648 net233
*649 net234
*650 net235
*651 net236
*652 net237
*653 net238
*654 net239
*655 net24
*656 net240
*657 net241
*658 net242
*659 net243
*660 net244
*661 net245
*662 net246
*663 net247
*664 net248
*665 net249
*666 net25
*667 net250
*668 net251
*669 net252
*670 net253
*671 net254
*672 net255
*673 net256
*674 net257
*675 net258
*676 net259
*677 net26
*678 net260
*679 net261
*680 net262
*681 net263
*682 net264
*683 net265
*684 net266
*685 net267
*686 net268
*687 net269
*688 net27
*689 net270
*690 net271
*691 net272
*692 net273
*693 net274
*694 net275
*695 net276
*696 net277
*697 net278
*698 net279
*699 net28
*700 net280
*701 net281
*702 net282
*703 net283
*704 net284
*705 net285
*706 net286
*707 net287
*708 net288
*709 net289
*710 net29
*711 net290
*712 net291
*713 net292
*714 net293
*715 net294
*716 net295
*717 net296
*718 net297
*719 net298
*720 net299
*721 net3
*722 net30
*723 net300
*724 net301
*725 net302
*726 net303
*727 net304
*728 net305
*729 net306
*730 net307
*731 net308
*732 net309
*733 net31
*734 net310
*735 net311
*736 net312
*737 net313
*738 net314
*739 net315
*740 net32
*741 net33
*742 net34
*743 net35
*744 net36
*745 net37
*746 net38
*747 net39
*748 net4
*749 net40
*750 net41
*751 net42
*752 net43
*753 net44
*754 net45
*755 net46
*756 net47
*757 net48
*758 net49
*759 net5
*760 net50
*761 net51
*762 net52
*763 net53
*764 net54
*765 net55
*766 net56
*767 net57
*768 net58
*769 net59
*770 net6
*771 net60
*772 net61
*773 net62
*774 net63
*775 net64
*776 net65
*777 net66
*778 net67
*779 net68
*780 net69
*781 net7
*782 net70
*783 net71
*784 net72
*785 net73
*786 net74
*787 net75
*788 net76
*789 net77
*790 net78
*791 net79
*792 net8
*793 net80
*794 net81
*795 net82
*796 net83
*797 net84
*798 net85
*799 net86
*800 net87
*801 net88
*802 net89
*803 net9
*804 net90
*805 net91
*806 net92
*807 net93
*808 net94
*809 net95
*810 net96
*811 net97
*812 net98
*813 net99
*814 ro_inst\.counter\[0\]
*815 ro_inst\.counter\[10\]
*816 ro_inst\.counter\[11\]
*817 ro_inst\.counter\[12\]
*818 ro_inst\.counter\[13\]
*819 ro_inst\.counter\[14\]
*820 ro_inst\.counter\[15\]
*821 ro_inst\.counter\[16\]
*822 ro_inst\.counter\[17\]
*823 ro_inst\.counter\[18\]
*824 ro_inst\.counter\[19\]
*825 ro_inst\.counter\[1\]
*826 ro_inst\.counter\[20\]
*827 ro_inst\.counter\[21\]
*828 ro_inst\.counter\[22\]
*829 ro_inst\.counter\[23\]
*830 ro_inst\.counter\[24\]
*831 ro_inst\.counter\[25\]
*832 ro_inst\.counter\[26\]
*833 ro_inst\.counter\[27\]
*834 ro_inst\.counter\[28\]
*835 ro_inst\.counter\[29\]
*836 ro_inst\.counter\[2\]
*837 ro_inst\.counter\[30\]
*838 ro_inst\.counter\[31\]
*839 ro_inst\.counter\[32\]
*840 ro_inst\.counter\[33\]
*841 ro_inst\.counter\[34\]
*842 ro_inst\.counter\[3\]
*843 ro_inst\.counter\[4\]
*844 ro_inst\.counter\[5\]
*845 ro_inst\.counter\[6\]
*846 ro_inst\.counter\[7\]
*847 ro_inst\.counter\[8\]
*848 ro_inst\.counter\[9\]
*849 ro_inst\.counter_n\[0\]
*850 ro_inst\.counter_n\[10\]
*851 ro_inst\.counter_n\[11\]
*852 ro_inst\.counter_n\[12\]
*853 ro_inst\.counter_n\[13\]
*854 ro_inst\.counter_n\[14\]
*855 ro_inst\.counter_n\[15\]
*856 ro_inst\.counter_n\[16\]
*857 ro_inst\.counter_n\[17\]
*858 ro_inst\.counter_n\[18\]
*859 ro_inst\.counter_n\[19\]
*860 ro_inst\.counter_n\[1\]
*861 ro_inst\.counter_n\[20\]
*862 ro_inst\.counter_n\[21\]
*863 ro_inst\.counter_n\[22\]
*864 ro_inst\.counter_n\[23\]
*865 ro_inst\.counter_n\[24\]
*866 ro_inst\.counter_n\[25\]
*867 ro_inst\.counter_n\[26\]
*868 ro_inst\.counter_n\[27\]
*869 ro_inst\.counter_n\[28\]
*870 ro_inst\.counter_n\[29\]
*871 ro_inst\.counter_n\[2\]
*872 ro_inst\.counter_n\[30\]
*873 ro_inst\.counter_n\[31\]
*874 ro_inst\.counter_n\[32\]
*875 ro_inst\.counter_n\[33\]
*876 ro_inst\.counter_n\[34\]
*877 ro_inst\.counter_n\[3\]
*878 ro_inst\.counter_n\[4\]
*879 ro_inst\.counter_n\[5\]
*880 ro_inst\.counter_n\[6\]
*881 ro_inst\.counter_n\[7\]
*882 ro_inst\.counter_n\[8\]
*883 ro_inst\.counter_n\[9\]
*884 ro_inst\.enable
*885 ro_inst\.ring\[0\]
*886 ro_inst\.ring\[1\]
*887 ro_inst\.ring\[2\]
*888 ro_inst\.running
*889 ro_inst\.saved_signal
*890 ro_inst\.signal
*891 ro_inst\.slow_clk_n
*892 ro_sel\[0\]
*893 ro_sel\[1\]
*894 ro_sel\[2\]
*895 ANTENNA__246__I
*896 ANTENNA__247__I
*897 ANTENNA__252__I
*898 ANTENNA__253__I
*899 ANTENNA__259__I
*900 ANTENNA__266__I
*901 ANTENNA__268__S1
*902 ANTENNA__271__I
*903 ANTENNA__272__S
*904 ANTENNA__275__I
*905 ANTENNA__278__I
*906 ANTENNA__279__I
*907 ANTENNA__281__I
*908 ANTENNA__288__A2
*909 ANTENNA__298__S0
*910 ANTENNA__298__S1
*911 ANTENNA__299__I
*912 ANTENNA__302__I
*913 ANTENNA__323__S
*914 ANTENNA__326__A1
*915 ANTENNA__336__S0
*916 ANTENNA__337__I
*917 ANTENNA__340__S
*918 ANTENNA__341__I
*919 ANTENNA__350__S0
*920 ANTENNA__353__A1
*921 ANTENNA__373__S
*922 ANTENNA__374__I
*923 ANTENNA__381__S1
*924 ANTENNA__383__S
*925 ANTENNA__390__S1
*926 ANTENNA__392__S
*927 ANTENNA__398__S0
*928 ANTENNA__398__S1
*929 ANTENNA__409__S
*930 ANTENNA__415__S0
*931 ANTENNA__420__S0
*932 ANTENNA__424__S0
*933 ANTENNA__428__A2
*934 ANTENNA__442__S0
*935 ANTENNA__443__S
*936 ANTENNA__477__I1
*937 ANTENNA__479__A2
*938 ANTENNA__481__A2
*939 ANTENNA__483__A2
*940 ANTENNA__496__CLK
*941 ANTENNA__497__CLK
*942 ANTENNA__498__CLK
*943 ANTENNA__499__CLK
*944 ANTENNA_cm_inst\.cc_inst\.and3_2_inst_A3
*945 ANTENNA_cm_inst\.cc_inst\.and4_1_inst_A4
*946 ANTENNA_cm_inst\.cc_inst\.and4_4_inst_A3
*947 ANTENNA_cm_inst\.cc_inst\.aoi221_4_inst_B2
*948 ANTENNA_cm_inst\.cc_inst\.aoi221_4_inst_C
*949 ANTENNA_cm_inst\.cc_inst\.aoi22_1_inst_B2
*950 ANTENNA_cm_inst\.cc_inst\.bufz_3_inst_EN
*951 ANTENNA_cm_inst\.cc_inst\.bufz_3_inst_I
*952 ANTENNA_cm_inst\.cc_inst\.dffnrsnq_2_inst_SETN
*953 ANTENNA_cm_inst\.cc_inst\.icgtn_1_inst_TE
*954 ANTENNA_cm_inst\.cc_inst\.icgtp_2_inst_TE
*955 ANTENNA_cm_inst\.cc_inst\.icgtp_4_inst_TE
*956 ANTENNA_cm_inst\.cc_inst\.nand3_1_inst_A2
*957 ANTENNA_cm_inst\.cc_inst\.nand3_1_inst_A3
*958 ANTENNA_cm_inst\.cc_inst\.oai22_2_inst_B2
*959 ANTENNA_cm_inst\.cc_inst\.oai31_4_inst_B
*960 ANTENNA_cm_inst\.cc_inst\.oai33_1_inst_B1
*961 ANTENNA_cm_inst\.cc_inst\.oai33_1_inst_B2
*962 ANTENNA_cm_inst\.cc_inst\.oai33_1_inst_B3
*963 ANTENNA_cm_inst\.cc_inst\.oai33_2_inst_B2
*964 ANTENNA_cm_inst\.cc_inst\.sdffrnq_2_inst_SI
*965 ANTENNA_cm_inst\.cc_inst\.sdffrsnq_1_inst_SETN
*966 ANTENNA_cm_inst\.cc_inst\.sdffrsnq_1_inst_SI
*967 ANTENNA_cm_inst\.cc_inst\.sdffrsnq_4_inst_SETN
*968 ANTENNA_cm_inst\.cc_inst\.sdffrsnq_4_inst_SI
*969 ANTENNA_cm_inst\.cc_inst\.sdffsnq_2_inst_SI
*970 ANTENNA_fanout101_I
*971 ANTENNA_fanout110_I
*972 ANTENNA_fanout113_I
*973 ANTENNA_fanout116_I
*974 ANTENNA_fanout117_I
*975 ANTENNA_fanout126_I
*976 ANTENNA_fanout163_I
*977 ANTENNA_fanout17_I
*978 ANTENNA_fanout181_I
*979 ANTENNA_fanout184_I
*980 ANTENNA_fanout187_I
*981 ANTENNA_fanout188_I
*982 ANTENNA_fanout18_I
*983 ANTENNA_fanout198_I
*984 ANTENNA_fanout199_I
*985 ANTENNA_fanout19_I
*986 ANTENNA_fanout21_I
*987 ANTENNA_fanout223_I
*988 ANTENNA_fanout22_I
*989 ANTENNA_fanout245_I
*990 ANTENNA_fanout246_I
*991 ANTENNA_fanout24_I
*992 ANTENNA_fanout25_I
*993 ANTENNA_fanout267_I
*994 ANTENNA_fanout283_I
*995 ANTENNA_fanout284_I
*996 ANTENNA_fanout289_I
*997 ANTENNA_fanout28_I
*998 ANTENNA_fanout291_I
*999 ANTENNA_fanout292_I
*1000 ANTENNA_fanout29_I
*1001 ANTENNA_fanout304_I
*1002 ANTENNA_fanout30_I
*1003 ANTENNA_fanout312_I
*1004 ANTENNA_fanout313_I
*1005 ANTENNA_fanout31_I
*1006 ANTENNA_fanout32_I
*1007 ANTENNA_fanout33_I
*1008 ANTENNA_fanout34_I
*1009 ANTENNA_fanout35_I
*1010 ANTENNA_fanout36_I
*1011 ANTENNA_fanout39_I
*1012 ANTENNA_fanout40_I
*1013 ANTENNA_fanout41_I
*1014 ANTENNA_fanout51_I
*1015 ANTENNA_fanout58_I
*1016 ANTENNA_fanout59_I
*1017 ANTENNA_fanout60_I
*1018 ANTENNA_fanout68_I
*1019 ANTENNA_fanout78_I
*1020 ANTENNA_fanout79_I
*1021 ANTENNA_fanout80_I
*1022 ANTENNA_fanout81_I
*1023 ANTENNA_fanout98_I
*1024 ANTENNA_input1_I
*1025 ANTENNA_input2_I
*1026 ANTENNA_input3_I
*1027 ANTENNA_input4_I
*1028 ANTENNA_input5_I
*1029 ANTENNA_input6_I
*1030 ANTENNA_input7_I
*1031 ANTENNA_input8_I
*1032 FILLER_0_0_104
*1033 FILLER_0_0_138
*1034 FILLER_0_0_154
*1035 FILLER_0_0_158
*1036 FILLER_0_0_160
*1037 FILLER_0_0_167
*1038 FILLER_0_0_169
*1039 FILLER_0_0_172
*1040 FILLER_0_0_2
*1041 FILLER_0_0_206
*1042 FILLER_0_0_240
*1043 FILLER_0_0_274
*1044 FILLER_0_0_308
*1045 FILLER_0_0_342
*1046 FILLER_0_0_36
*1047 FILLER_0_0_376
*1048 FILLER_0_0_392
*1049 FILLER_0_0_400
*1050 FILLER_0_0_70
*1051 FILLER_0_10_107
*1052 FILLER_0_10_111
*1053 FILLER_0_10_172
*1054 FILLER_0_10_174
*1055 FILLER_0_10_18
*1056 FILLER_0_10_187
*1057 FILLER_0_10_2
*1058 FILLER_0_10_239
*1059 FILLER_0_10_243
*1060 FILLER_0_10_263
*1061 FILLER_0_10_27
*1062 FILLER_0_10_310
*1063 FILLER_0_10_314
*1064 FILLER_0_10_323
*1065 FILLER_0_10_369
*1066 FILLER_0_10_387
*1067 FILLER_0_10_395
*1068 FILLER_0_10_399
*1069 FILLER_0_10_401
*1070 FILLER_0_10_45
*1071 FILLER_0_11_142
*1072 FILLER_0_11_144
*1073 FILLER_0_11_154
*1074 FILLER_0_11_156
*1075 FILLER_0_11_178
*1076 FILLER_0_11_182
*1077 FILLER_0_11_208
*1078 FILLER_0_11_244
*1079 FILLER_0_11_318
*1080 FILLER_0_11_352
*1081 FILLER_0_11_356
*1082 FILLER_0_11_400
*1083 FILLER_0_11_80
*1084 FILLER_0_11_88
*1085 FILLER_0_12_107
*1086 FILLER_0_12_131
*1087 FILLER_0_12_135
*1088 FILLER_0_12_168
*1089 FILLER_0_12_172
*1090 FILLER_0_12_174
*1091 FILLER_0_12_177
*1092 FILLER_0_12_193
*1093 FILLER_0_12_2
*1094 FILLER_0_12_203
*1095 FILLER_0_12_210
*1096 FILLER_0_12_218
*1097 FILLER_0_12_22
*1098 FILLER_0_12_222
*1099 FILLER_0_12_240
*1100 FILLER_0_12_244
*1101 FILLER_0_12_247
*1102 FILLER_0_12_282
*1103 FILLER_0_12_30
*1104 FILLER_0_12_317
*1105 FILLER_0_12_319
*1106 FILLER_0_12_330
*1107 FILLER_0_12_34
*1108 FILLER_0_12_37
*1109 FILLER_0_12_375
*1110 FILLER_0_12_383
*1111 FILLER_0_12_387
*1112 FILLER_0_12_395
*1113 FILLER_0_12_399
*1114 FILLER_0_12_401
*1115 FILLER_0_12_53
*1116 FILLER_0_12_61
*1117 FILLER_0_12_67
*1118 FILLER_0_13_108
*1119 FILLER_0_13_112
*1120 FILLER_0_13_131
*1121 FILLER_0_13_139
*1122 FILLER_0_13_142
*1123 FILLER_0_13_144
*1124 FILLER_0_13_153
*1125 FILLER_0_13_157
*1126 FILLER_0_13_196
*1127 FILLER_0_13_200
*1128 FILLER_0_13_202
*1129 FILLER_0_13_205
*1130 FILLER_0_13_209
*1131 FILLER_0_13_212
*1132 FILLER_0_13_228
*1133 FILLER_0_13_244
*1134 FILLER_0_13_262
*1135 FILLER_0_13_264
*1136 FILLER_0_13_279
*1137 FILLER_0_13_298
*1138 FILLER_0_13_347
*1139 FILLER_0_13_349
*1140 FILLER_0_13_358
*1141 FILLER_0_13_366
*1142 FILLER_0_13_72
*1143 FILLER_0_13_76
*1144 FILLER_0_13_78
*1145 FILLER_0_14_103
*1146 FILLER_0_14_107
*1147 FILLER_0_14_140
*1148 FILLER_0_14_148
*1149 FILLER_0_14_174
*1150 FILLER_0_14_18
*1151 FILLER_0_14_183
*1152 FILLER_0_14_2
*1153 FILLER_0_14_201
*1154 FILLER_0_14_205
*1155 FILLER_0_14_209
*1156 FILLER_0_14_26
*1157 FILLER_0_14_268
*1158 FILLER_0_14_270
*1159 FILLER_0_14_287
*1160 FILLER_0_14_303
*1161 FILLER_0_14_307
*1162 FILLER_0_14_323
*1163 FILLER_0_14_34
*1164 FILLER_0_14_37
*1165 FILLER_0_14_379
*1166 FILLER_0_14_383
*1167 FILLER_0_14_387
*1168 FILLER_0_14_395
*1169 FILLER_0_14_399
*1170 FILLER_0_14_401
*1171 FILLER_0_14_45
*1172 FILLER_0_14_49
*1173 FILLER_0_14_55
*1174 FILLER_0_14_57
*1175 FILLER_0_14_64
*1176 FILLER_0_14_72
*1177 FILLER_0_15_108
*1178 FILLER_0_15_110
*1179 FILLER_0_15_117
*1180 FILLER_0_15_133
*1181 FILLER_0_15_137
*1182 FILLER_0_15_192
*1183 FILLER_0_15_194
*1184 FILLER_0_15_2
*1185 FILLER_0_15_201
*1186 FILLER_0_15_22
*1187 FILLER_0_15_24
*1188 FILLER_0_15_311
*1189 FILLER_0_15_319
*1190 FILLER_0_15_352
*1191 FILLER_0_15_65
*1192 FILLER_0_15_67
*1193 FILLER_0_16_10
*1194 FILLER_0_16_104
*1195 FILLER_0_16_122
*1196 FILLER_0_16_126
*1197 FILLER_0_16_14
*1198 FILLER_0_16_173
*1199 FILLER_0_16_2
*1200 FILLER_0_16_203
*1201 FILLER_0_16_22
*1202 FILLER_0_16_234
*1203 FILLER_0_16_236
*1204 FILLER_0_16_269
*1205 FILLER_0_16_30
*1206 FILLER_0_16_310
*1207 FILLER_0_16_314
*1208 FILLER_0_16_317
*1209 FILLER_0_16_325
*1210 FILLER_0_16_327
*1211 FILLER_0_16_34
*1212 FILLER_0_16_37
*1213 FILLER_0_16_380
*1214 FILLER_0_16_384
*1215 FILLER_0_16_387
*1216 FILLER_0_16_39
*1217 FILLER_0_16_395
*1218 FILLER_0_16_399
*1219 FILLER_0_16_401
*1220 FILLER_0_16_44
*1221 FILLER_0_16_6
*1222 FILLER_0_17_106
*1223 FILLER_0_17_137
*1224 FILLER_0_17_139
*1225 FILLER_0_17_142
*1226 FILLER_0_17_204
*1227 FILLER_0_17_212
*1228 FILLER_0_17_229
*1229 FILLER_0_17_273
*1230 FILLER_0_17_277
*1231 FILLER_0_17_279
*1232 FILLER_0_17_317
*1233 FILLER_0_17_321
*1234 FILLER_0_17_325
*1235 FILLER_0_17_329
*1236 FILLER_0_17_337
*1237 FILLER_0_17_347
*1238 FILLER_0_17_349
*1239 FILLER_0_17_352
*1240 FILLER_0_17_368
*1241 FILLER_0_17_372
*1242 FILLER_0_17_374
*1243 FILLER_0_17_397
*1244 FILLER_0_17_401
*1245 FILLER_0_17_72
*1246 FILLER_0_18_14
*1247 FILLER_0_18_141
*1248 FILLER_0_18_145
*1249 FILLER_0_18_147
*1250 FILLER_0_18_150
*1251 FILLER_0_18_22
*1252 FILLER_0_18_228
*1253 FILLER_0_18_236
*1254 FILLER_0_18_238
*1255 FILLER_0_18_247
*1256 FILLER_0_18_257
*1257 FILLER_0_18_261
*1258 FILLER_0_18_27
*1259 FILLER_0_18_306
*1260 FILLER_0_18_310
*1261 FILLER_0_18_312
*1262 FILLER_0_18_333
*1263 FILLER_0_18_371
*1264 FILLER_0_18_379
*1265 FILLER_0_18_383
*1266 FILLER_0_18_387
*1267 FILLER_0_18_395
*1268 FILLER_0_18_399
*1269 FILLER_0_18_401
*1270 FILLER_0_18_71
*1271 FILLER_0_18_96
*1272 FILLER_0_19_10
*1273 FILLER_0_19_109
*1274 FILLER_0_19_111
*1275 FILLER_0_19_136
*1276 FILLER_0_19_155
*1277 FILLER_0_19_157
*1278 FILLER_0_19_166
*1279 FILLER_0_19_168
*1280 FILLER_0_19_187
*1281 FILLER_0_19_191
*1282 FILLER_0_19_212
*1283 FILLER_0_19_216
*1284 FILLER_0_19_248
*1285 FILLER_0_19_261
*1286 FILLER_0_19_269
*1287 FILLER_0_19_282
*1288 FILLER_0_19_342
*1289 FILLER_0_19_352
*1290 FILLER_0_19_399
*1291 FILLER_0_19_401
*1292 FILLER_0_19_46
*1293 FILLER_0_19_54
*1294 FILLER_0_1_136
*1295 FILLER_0_1_186
*1296 FILLER_0_1_190
*1297 FILLER_0_1_2
*1298 FILLER_0_1_212
*1299 FILLER_0_1_276
*1300 FILLER_0_1_282
*1301 FILLER_0_1_346
*1302 FILLER_0_1_352
*1303 FILLER_0_1_384
*1304 FILLER_0_1_400
*1305 FILLER_0_1_66
*1306 FILLER_0_1_72
*1307 FILLER_0_20_169
*1308 FILLER_0_20_173
*1309 FILLER_0_20_177
*1310 FILLER_0_20_179
*1311 FILLER_0_20_184
*1312 FILLER_0_20_235
*1313 FILLER_0_20_24
*1314 FILLER_0_20_243
*1315 FILLER_0_20_247
*1316 FILLER_0_20_255
*1317 FILLER_0_20_26
*1318 FILLER_0_20_271
*1319 FILLER_0_20_273
*1320 FILLER_0_20_331
*1321 FILLER_0_20_387
*1322 FILLER_0_20_395
*1323 FILLER_0_20_399
*1324 FILLER_0_20_401
*1325 FILLER_0_20_45
*1326 FILLER_0_20_49
*1327 FILLER_0_20_95
*1328 FILLER_0_21_100
*1329 FILLER_0_21_104
*1330 FILLER_0_21_106
*1331 FILLER_0_21_139
*1332 FILLER_0_21_156
*1333 FILLER_0_21_160
*1334 FILLER_0_21_162
*1335 FILLER_0_21_196
*1336 FILLER_0_21_198
*1337 FILLER_0_21_209
*1338 FILLER_0_21_212
*1339 FILLER_0_21_228
*1340 FILLER_0_21_236
*1341 FILLER_0_21_266
*1342 FILLER_0_21_282
*1343 FILLER_0_21_346
*1344 FILLER_0_21_392
*1345 FILLER_0_21_400
*1346 FILLER_0_21_43
*1347 FILLER_0_21_47
*1348 FILLER_0_21_69
*1349 FILLER_0_21_78
*1350 FILLER_0_21_8
*1351 FILLER_0_22_148
*1352 FILLER_0_22_164
*1353 FILLER_0_22_166
*1354 FILLER_0_22_177
*1355 FILLER_0_22_185
*1356 FILLER_0_22_187
*1357 FILLER_0_22_203
*1358 FILLER_0_22_207
*1359 FILLER_0_22_223
*1360 FILLER_0_22_227
*1361 FILLER_0_22_241
*1362 FILLER_0_22_247
*1363 FILLER_0_22_28
*1364 FILLER_0_22_314
*1365 FILLER_0_22_37
*1366 FILLER_0_22_372
*1367 FILLER_0_22_380
*1368 FILLER_0_22_384
*1369 FILLER_0_22_387
*1370 FILLER_0_22_39
*1371 FILLER_0_22_395
*1372 FILLER_0_22_399
*1373 FILLER_0_22_401
*1374 FILLER_0_22_52
*1375 FILLER_0_22_54
*1376 FILLER_0_23_102
*1377 FILLER_0_23_136
*1378 FILLER_0_23_142
*1379 FILLER_0_23_147
*1380 FILLER_0_23_151
*1381 FILLER_0_23_159
*1382 FILLER_0_23_176
*1383 FILLER_0_23_180
*1384 FILLER_0_23_2
*1385 FILLER_0_23_212
*1386 FILLER_0_23_216
*1387 FILLER_0_23_218
*1388 FILLER_0_23_233
*1389 FILLER_0_23_246
*1390 FILLER_0_23_314