*SPEF "ieee 1481-1999"
*DESIGN "input_mux"
*DATE "11:11:11 Fri 11 11, 1111"
*VENDOR "OpenRCX"
*PROGRAM "Parallel Extraction"
*VERSION "1.0"
*DESIGN_FLOW "NAME_SCOPE LOCAL" "PIN_CAP NONE"
*DIVIDER /
*DELIMITER :
*BUS_DELIMITER []
*T_UNIT 1 NS
*C_UNIT 1 PF
*R_UNIT 1 OHM
*L_UNIT 1 HENRY

*NAME_MAP
*1 clk
*2 in[0]
*3 in[10]
*4 in[11]
*5 in[12]
*6 in[13]
*7 in[14]
*8 in[15]
*9 in[16]
*10 in[17]
*11 in[18]
*12 in[1]
*13 in[2]
*14 in[3]
*15 in[4]
*16 in[5]
*17 in[6]
*18 in[7]
*19 in[8]
*20 in[9]
*21 proj_clk[0]
*22 proj_clk[1]
*23 proj_clk[2]
*24 proj_clk[3]
*25 proj_in[0]
*26 proj_in[10]
*27 proj_in[11]
*28 proj_in[12]
*29 proj_in[13]
*30 proj_in[14]
*31 proj_in[15]
*32 proj_in[16]
*33 proj_in[17]
*34 proj_in[18]
*35 proj_in[19]
*36 proj_in[1]
*37 proj_in[20]
*38 proj_in[21]
*39 proj_in[22]
*40 proj_in[23]
*41 proj_in[24]
*42 proj_in[25]
*43 proj_in[26]
*44 proj_in[27]
*45 proj_in[28]
*46 proj_in[29]
*47 proj_in[2]
*48 proj_in[30]
*49 proj_in[31]
*50 proj_in[32]
*51 proj_in[33]
*52 proj_in[34]
*53 proj_in[35]
*54 proj_in[36]
*55 proj_in[37]
*56 proj_in[38]
*57 proj_in[39]
*58 proj_in[3]
*59 proj_in[40]
*60 proj_in[41]
*61 proj_in[42]
*62 proj_in[43]
*63 proj_in[44]
*64 proj_in[45]
*65 proj_in[46]
*66 proj_in[47]
*67 proj_in[48]
*68 proj_in[49]
*69 proj_in[4]
*70 proj_in[50]
*71 proj_in[51]
*72 proj_in[52]
*73 proj_in[53]
*74 proj_in[54]
*75 proj_in[55]
*76 proj_in[56]
*77 proj_in[57]
*78 proj_in[58]
*79 proj_in[59]
*80 proj_in[5]
*81 proj_in[60]
*82 proj_in[61]
*83 proj_in[62]
*84 proj_in[63]
*85 proj_in[64]
*86 proj_in[65]
*87 proj_in[66]
*88 proj_in[67]
*89 proj_in[68]
*90 proj_in[69]
*91 proj_in[6]
*92 proj_in[70]
*93 proj_in[71]
*94 proj_in[72]
*95 proj_in[73]
*96 proj_in[74]
*97 proj_in[75]
*98 proj_in[7]
*99 proj_in[8]
*100 proj_in[9]
*101 proj_rst_n[0]
*102 proj_rst_n[1]
*103 proj_rst_n[2]
*104 proj_rst_n[3]
*105 rst_n
*106 sel[0]
*107 sel[1]
*110 _000_
*111 _001_
*112 _002_
*113 _003_
*114 _004_
*115 _005_
*116 _006_
*117 _007_
*118 _008_
*119 _009_
*120 _010_
*121 _011_
*122 _012_
*123 _013_
*124 _014_
*125 _015_
*126 _016_
*127 _017_
*128 _018_
*129 _019_
*130 _020_
*131 _021_
*132 _022_
*133 _023_
*134 _024_
*135 _025_
*136 _026_
*137 _027_
*138 _028_
*139 _029_
*140 _030_
*141 _031_
*142 _032_
*143 _033_
*144 _034_
*145 _035_
*146 _036_
*147 _037_
*148 _038_
*149 _039_
*150 _040_
*151 _041_
*152 _042_
*153 _043_
*154 _044_
*155 _045_
*156 _046_
*157 _047_
*158 _048_
*159 _049_
*160 _050_
*161 _051_
*162 _052_
*163 _053_
*164 _054_
*165 _055_
*166 _056_
*167 _057_
*168 _058_
*169 _059_
*170 _060_
*171 _061_
*172 _062_
*173 _063_
*174 _064_
*175 _065_
*176 _066_
*177 _067_
*178 _068_
*179 _069_
*180 _070_
*181 _071_
*182 _072_
*183 _073_
*184 _074_
*185 _075_
*186 _076_
*187 _077_
*188 _078_
*189 _079_
*190 _080_
*191 _081_
*192 _082_
*193 _083_
*194 _084_
*195 _085_
*196 _086_
*197 _087_
*198 _088_
*199 _089_
*200 _090_
*201 _091_
*202 _092_
*203 _093_
*204 _094_
*205 _095_
*206 _096_
*207 _097_
*208 _098_
*209 _099_
*210 _100_
*211 _101_
*212 _102_
*213 _103_
*214 _104_
*215 _105_
*216 _106_
*217 _107_
*218 _108_
*219 _109_
*220 _110_
*221 _111_
*222 _112_
*223 _113_
*224 _114_
*225 _115_
*226 _116_
*227 _117_
*228 _118_
*229 _119_
*230 _120_
*231 _122_
*232 _123_
*233 _124_
*234 _125_
*235 clknet_0_clk
*236 clknet_1_0__leaf_clk
*237 clknet_1_1__leaf_clk
*238 net1
*239 net10
*240 net100
*241 net101
*242 net102
*243 net103
*244 net104
*245 net105
*246 net106
*247 net107
*248 net108
*249 net11
*250 net12
*251 net13
*252 net14
*253 net15
*254 net16
*255 net17
*256 net18
*257 net19
*258 net2
*259 net20
*260 net21
*261 net22
*262 net23
*263 net24
*264 net25
*265 net26
*266 net27
*267 net28
*268 net29
*269 net3
*270 net30
*271 net31
*272 net32
*273 net33
*274 net34
*275 net35
*276 net36
*277 net37
*278 net38
*279 net39
*280 net4
*281 net40
*282 net41
*283 net42
*284 net43
*285 net44
*286 net45
*287 net46
*288 net47
*289 net48
*290 net49
*291 net5
*292 net50
*293 net51
*294 net52
*295 net53
*296 net54
*297 net55
*298 net56
*299 net57
*300 net58
*301 net59
*302 net6
*303 net60
*304 net61
*305 net62
*306 net63
*307 net64
*308 net65
*309 net66
*310 net67
*311 net68
*312 net69
*313 net7
*314 net70
*315 net71
*316 net72
*317 net73
*318 net74
*319 net75
*320 net76
*321 net77
*322 net78
*323 net79
*324 net8
*325 net80
*326 net81
*327 net82
*328 net83
*329 net84
*330 net85
*331 net86
*332 net87
*333 net88
*334 net89
*335 net9
*336 net90
*337 net91
*338 net92
*339 net93
*340 net94
*341 net95
*342 net96
*343 net97
*344 net98
*345 net99
*346 sel_latched\[0\]
*347 sel_latched\[1\]
*348 ANTENNA__131__A1
*349 ANTENNA__133__A1
*350 ANTENNA__135__A1
*351 ANTENNA__137__A1
*352 ANTENNA__140__A1
*353 ANTENNA__142__A1
*354 ANTENNA__144__A1
*355 ANTENNA__149__A1
*356 ANTENNA__151__A1
*357 ANTENNA__153__A1
*358 ANTENNA__158__A1
*359 ANTENNA__160__A1
*360 ANTENNA__162__A1
*361 ANTENNA__167__A1
*362 ANTENNA__169__A1
*363 ANTENNA__171__A1
*364 ANTENNA__178__A1
*365 ANTENNA__180__A1
*366 ANTENNA__182__A1
*367 ANTENNA__184__A1
*368 ANTENNA__188__A1
*369 ANTENNA__190__A1
*370 ANTENNA__192__A1
*371 ANTENNA__198__A1
*372 ANTENNA__200__A1
*373 ANTENNA__202__A1
*374 ANTENNA__208__A1
*375 ANTENNA__210__A1
*376 ANTENNA__212__A1
*377 ANTENNA__218__A1
*378 ANTENNA__220__A1
*379 ANTENNA__222__A1
*380 ANTENNA__229__A1
*381 ANTENNA__231__A1
*382 ANTENNA__233__A1
*383 ANTENNA__235__A1
*384 ANTENNA__239__A1
*385 ANTENNA__241__A1
*386 ANTENNA__243__A1
*387 ANTENNA__249__A1
*388 ANTENNA__251__A1
*389 ANTENNA__253__A1
*390 ANTENNA__259__A1
*391 ANTENNA__261__A1
*392 ANTENNA__263__A1
*393 ANTENNA__269__A1
*394 ANTENNA__271__A1
*395 ANTENNA__273__A1
*396 ANTENNA__278__A1
*397 ANTENNA__280__A1
*398 ANTENNA__282__A1
*399 ANTENNA__284__A1
*400 ANTENNA__287__A1
*401 ANTENNA__289__A1
*402 ANTENNA__291__A1
*403 ANTENNA__296__A1
*404 ANTENNA__298__A1
*405 ANTENNA__300__A1
*406 ANTENNA__305__A1
*407 ANTENNA__307__A1
*408 ANTENNA__309__A1
*409 ANTENNA__314__A1
*410 ANTENNA__316__A1
*411 ANTENNA__318__A1
*412 ANTENNA__328__A1
*413 ANTENNA__330__A3
*414 ANTENNA__332__A3
*415 ANTENNA__334__A1
*416 ANTENNA_clkbuf_0_clk_I
*417 ANTENNA_input10_I
*418 ANTENNA_input11_I
*419 ANTENNA_input12_I
*420 ANTENNA_input13_I
*421 ANTENNA_input14_I
*422 ANTENNA_input15_I
*423 ANTENNA_input16_I
*424 ANTENNA_input17_I
*425 ANTENNA_input18_I
*426 ANTENNA_input19_I
*427 ANTENNA_input1_I
*428 ANTENNA_input20_I
*429 ANTENNA_input21_I
*430 ANTENNA_input22_I
*431 ANTENNA_input2_I
*432 ANTENNA_input3_I
*433 ANTENNA_input4_I
*434 ANTENNA_input5_I
*435 ANTENNA_input6_I
*436 ANTENNA_input7_I
*437 ANTENNA_input8_I
*438 ANTENNA_input9_I
*439 ANTENNA_output103_I
*440 ANTENNA_output44_I
*441 ANTENNA_output53_I
*442 ANTENNA_output54_I
*443 ANTENNA_output55_I
*444 ANTENNA_output61_I
*445 ANTENNA_output62_I
*446 ANTENNA_output64_I
*447 ANTENNA_output67_I
*448 ANTENNA_output69_I
*449 ANTENNA_output72_I
*450 ANTENNA_output74_I
*451 ANTENNA_output75_I
*452 ANTENNA_output82_I
*453 ANTENNA_output84_I
*454 ANTENNA_output85_I
*455 ANTENNA_output86_I
*456 ANTENNA_output87_I
*457 FILLER_0_0_104
*458 FILLER_0_0_120
*459 FILLER_0_0_138
*460 FILLER_0_0_172
*461 FILLER_0_0_174
*462 FILLER_0_0_199
*463 FILLER_0_0_2
*464 FILLER_0_0_201
*465 FILLER_0_0_236
*466 FILLER_0_0_240
*467 FILLER_0_0_274
*468 FILLER_0_0_308
*469 FILLER_0_0_312
*470 FILLER_0_0_315
*471 FILLER_0_0_36
*472 FILLER_0_0_70
*473 FILLER_0_10_101
*474 FILLER_0_10_107
*475 FILLER_0_10_171
*476 FILLER_0_10_177
*477 FILLER_0_10_2
*478 FILLER_0_10_241
*479 FILLER_0_10_247
*480 FILLER_0_10_311
*481 FILLER_0_10_317
*482 FILLER_0_10_34
*483 FILLER_0_10_37
*484 FILLER_0_11_136
*485 FILLER_0_11_142
*486 FILLER_0_11_2
*487 FILLER_0_11_206
*488 FILLER_0_11_212
*489 FILLER_0_11_276
*490 FILLER_0_11_282
*491 FILLER_0_11_314
*492 FILLER_0_11_322
*493 FILLER_0_11_66
*494 FILLER_0_11_72
*495 FILLER_0_12_101
*496 FILLER_0_12_107
*497 FILLER_0_12_12
*498 FILLER_0_12_139
*499 FILLER_0_12_150
*500 FILLER_0_12_166
*501 FILLER_0_12_174
*502 FILLER_0_12_177
*503 FILLER_0_12_187
*504 FILLER_0_12_191
*505 FILLER_0_12_193
*506 FILLER_0_12_200
*507 FILLER_0_12_204
*508 FILLER_0_12_208
*509 FILLER_0_12_240
*510 FILLER_0_12_244
*511 FILLER_0_12_247
*512 FILLER_0_12_28
*513 FILLER_0_12_311
*514 FILLER_0_12_317
*515 FILLER_0_12_32
*516 FILLER_0_12_34
*517 FILLER_0_12_37
*518 FILLER_0_12_8
*519 FILLER_0_13_104
*520 FILLER_0_13_12
*521 FILLER_0_13_120
*522 FILLER_0_13_124
*523 FILLER_0_13_131
*524 FILLER_0_13_135
*525 FILLER_0_13_137
*526 FILLER_0_13_142
*527 FILLER_0_13_168
*528 FILLER_0_13_170
*529 FILLER_0_13_185
*530 FILLER_0_13_189
*531 FILLER_0_13_206
*532 FILLER_0_13_218
*533 FILLER_0_13_250
*534 FILLER_0_13_266
*535 FILLER_0_13_274
*536 FILLER_0_13_278
*537 FILLER_0_13_282
*538 FILLER_0_13_314
*539 FILLER_0_13_322
*540 FILLER_0_13_324
*541 FILLER_0_13_44
*542 FILLER_0_13_60
*543 FILLER_0_13_68
*544 FILLER_0_13_72
*545 FILLER_0_13_8
*546 FILLER_0_14_101
*547 FILLER_0_14_107
*548 FILLER_0_14_111
*549 FILLER_0_14_12
*550 FILLER_0_14_142
*551 FILLER_0_14_165
*552 FILLER_0_14_227
*553 FILLER_0_14_235
*554 FILLER_0_14_239
*555 FILLER_0_14_241
*556 FILLER_0_14_244
*557 FILLER_0_14_247
*558 FILLER_0_14_249
*559 FILLER_0_14_256
*560 FILLER_0_14_28
*561 FILLER_0_14_288
*562 FILLER_0_14_304
*563 FILLER_0_14_312
*564 FILLER_0_14_314
*565 FILLER_0_14_317
*566 FILLER_0_14_32
*567 FILLER_0_14_34
*568 FILLER_0_14_37
*569 FILLER_0_14_8
*570 FILLER_0_15_104
*571 FILLER_0_15_108
*572 FILLER_0_15_110
*573 FILLER_0_15_192
*574 FILLER_0_15_208
*575 FILLER_0_15_218
*576 FILLER_0_15_242
*577 FILLER_0_15_244
*578 FILLER_0_15_267
*579 FILLER_0_15_271
*580 FILLER_0_15_279
*581 FILLER_0_15_282
*582 FILLER_0_15_314
*583 FILLER_0_15_322
*584 FILLER_0_15_324
*585 FILLER_0_15_40
*586 FILLER_0_15_56
*587 FILLER_0_15_64
*588 FILLER_0_15_68
*589 FILLER_0_15_72
*590 FILLER_0_15_8
*591 FILLER_0_16_101
*592 FILLER_0_16_107
*593 FILLER_0_16_172
*594 FILLER_0_16_174
*595 FILLER_0_16_185
*596 FILLER_0_16_217
*597 FILLER_0_16_227
*598 FILLER_0_16_231
*599 FILLER_0_16_233
*600 FILLER_0_16_24
*601 FILLER_0_16_240
*602 FILLER_0_16_244
*603 FILLER_0_16_247
*604 FILLER_0_16_255
*605 FILLER_0_16_265
*606 FILLER_0_16_297
*607 FILLER_0_16_313
*608 FILLER_0_16_317
*609 FILLER_0_16_32
*610 FILLER_0_16_34
*611 FILLER_0_16_37
*612 FILLER_0_16_8
*613 FILLER_0_17_101
*614 FILLER_0_17_105
*615 FILLER_0_17_119
*616 FILLER_0_17_123
*617 FILLER_0_17_132
*618 FILLER_0_17_142
*619 FILLER_0_17_172
*620 FILLER_0_17_189
*621 FILLER_0_17_191
*622 FILLER_0_17_226
*623 FILLER_0_17_250
*624 FILLER_0_17_252
*625 FILLER_0_17_275
*626 FILLER_0_17_279
*627 FILLER_0_17_282
*628 FILLER_0_17_314
*629 FILLER_0_17_322
*630 FILLER_0_17_324
*631 FILLER_0_17_40
*632 FILLER_0_17_56
*633 FILLER_0_17_64
*634 FILLER_0_17_68
*635 FILLER_0_17_72
*636 FILLER_0_17_8
*637 FILLER_0_17_88
*638 FILLER_0_17_92
*639 FILLER_0_17_94
*640 FILLER_0_18_107
*641 FILLER_0_18_109
*642 FILLER_0_18_132
*643 FILLER_0_18_134
*644 FILLER_0_18_14
*645 FILLER_0_18_149
*646 FILLER_0_18_153
*647 FILLER_0_18_155
*648 FILLER_0_18_158
*649 FILLER_0_18_162
*650 FILLER_0_18_18
*651 FILLER_0_18_187
*652 FILLER_0_18_191
*653 FILLER_0_18_202
*654 FILLER_0_18_206
*655 FILLER_0_18_213
*656 FILLER_0_18_221
*657 FILLER_0_18_247
*658 FILLER_0_18_257
*659 FILLER_0_18_263
*660 FILLER_0_18_295
*661 FILLER_0_18_311
*662 FILLER_0_18_317
*663 FILLER_0_18_34
*664 FILLER_0_18_37
*665 FILLER_0_18_69
*666 FILLER_0_18_85
*667 FILLER_0_19_106
*668 FILLER_0_19_120
*669 FILLER_0_19_142
*670 FILLER_0_19_144
*671 FILLER_0_19_167
*672 FILLER_0_19_171
*673 FILLER_0_19_182
*674 FILLER_0_19_186
*675 FILLER_0_19_190
*676 FILLER_0_19_199
*677 FILLER_0_19_201
*678 FILLER_0_19_208
*679 FILLER_0_19_212
*680 FILLER_0_19_216
*681 FILLER_0_19_218
*682 FILLER_0_19_239
*683 FILLER_0_19_269
*684 FILLER_0_19_273
*685 FILLER_0_19_277
*686 FILLER_0_19_279
*687 FILLER_0_19_282
*688 FILLER_0_19_314
*689 FILLER_0_19_322
*690 FILLER_0_19_324
*691 FILLER_0_19_40
*692 FILLER_0_19_56
*693 FILLER_0_19_64
*694 FILLER_0_19_68
*695 FILLER_0_19_72
*696 FILLER_0_19_8
*697 FILLER_0_19_80
*698 FILLER_0_1_104
*699 FILLER_0_1_120
*700 FILLER_0_1_128
*701 FILLER_0_1_132
*702 FILLER_0_1_139
*703 FILLER_0_1_142
*704 FILLER_0_1_2
*705 FILLER_0_1_206
*706 FILLER_0_1_212
*707 FILLER_0_1_218
*708 FILLER_0_1_224
*709 FILLER_0_1_256
*710 FILLER_0_1_272
*711 FILLER_0_1_282
*712 FILLER_0_1_314
*713 FILLER_0_1_322
*714 FILLER_0_1_66
*715 FILLER_0_1_72
*716 FILLER_0_20_107
*717 FILLER_0_20_111
*718 FILLER_0_20_119
*719 FILLER_0_20_132
*720 FILLER_0_20_136
*721 FILLER_0_20_144
*722 FILLER_0_20_148
*723 FILLER_0_20_161
*724 FILLER_0_20_177
*725 FILLER_0_20_185
*726 FILLER_0_20_187
*727 FILLER_0_20_190
*728 FILLER_0_20_225
*729 FILLER_0_20_239
*730 FILLER_0_20_24
*731 FILLER_0_20_243
*732 FILLER_0_20_247
*733 FILLER_0_20_274
*734 FILLER_0_20_278
*735 FILLER_0_20_310
*736 FILLER_0_20_314
*737 FILLER_0_20_317
*738 FILLER_0_20_32
*739 FILLER_0_20_34
*740 FILLER_0_20_37
*741 FILLER_0_20_69
*742 FILLER_0_20_8
*743 FILLER_0_20_85
*744 FILLER_0_20_89
*745 FILLER_0_21_106
*746 FILLER_0_21_108
*747 FILLER_0_21_137
*748 FILLER_0_21_139
*749 FILLER_0_21_150
*750 FILLER_0_21_161
*751 FILLER_0_21_168
*752 FILLER_0_21_172
*753 FILLER_0_21_176
*754 FILLER_0_21_188
*755 FILLER_0_21_192
*756 FILLER_0_21_194
*757 FILLER_0_21_207
*758 FILLER_0_21_209
*759 FILLER_0_21_212
*760 FILLER_0_21_216
*761 FILLER_0_21_231
*762 FILLER_0_21_235
*763 FILLER_0_21_248
*764 FILLER_0_21_252
*765 FILLER_0_21_254
*766 FILLER_0_21_261
*767 FILLER_0_21_265
*768 FILLER_0_21_273
*769 FILLER_0_21_277
*770 FILLER_0_21_279
*771 FILLER_0_21_282
*772 FILLER_0_21_314
*773 FILLER_0_21_322
*774 FILLER_0_21_324
*775 FILLER_0_21_40
*776 FILLER_0_21_56
*777 FILLER_0_21_64
*778 FILLER_0_21_68
*779 FILLER_0_21_72
*780 FILLER_0_21_8
*781 FILLER_0_21_80
*782 FILLER_0_21_86
*783 FILLER_0_22_100
*784 FILLER_0_22_104
*785 FILLER_0_22_107
*786 FILLER_0_22_121
*787 FILLER_0_22_153
*788 FILLER_0_22_161
*789 FILLER_0_22_168
*790 FILLER_0_22_177
*791 FILLER_0_22_200
*792 FILLER_0_22_208
*793 FILLER_0_22_234
*794 FILLER_0_22_24
*795 FILLER_0_22_241
*796 FILLER_0_22_257
*797 FILLER_0_22_261
*798 FILLER_0_22_293
*799 FILLER_0_22_309
*800 FILLER_0_22_313
*801 FILLER_0_22_317
*802 FILLER_0_22_32
*803 FILLER_0_22_34
*804 FILLER_0_22_37
*805 FILLER_0_22_69
*806 FILLER_0_22_77
*807 FILLER_0_22_8
*808 FILLER_0_22_81
*809 FILLER_0_22_83
*810 FILLER_0_23_103
*811 FILLER_0_23_111
*812 FILLER_0_23_115
*813 FILLER_0_23_117
*814 FILLER_0_23_130
*815 FILLER_0_23_138
*816 FILLER_0_23_142
*817 FILLER_0_23_144
*818 FILLER_0_23_151
*819 FILLER_0_23_172
*820 FILLER_0_23_176
*821 FILLER_0_23_196
*822 FILLER_0_23_212
*823 FILLER_0_23_216
*824 FILLER_0_23_239
*825 FILLER_0_23_243
*826 FILLER_0_23_260
*827 FILLER_0_23_276
*828 FILLER_0_23_282
*829 FILLER_0_23_314
*830 FILLER_0_23_322
*831 FILLER_0_23_324
*832 FILLER_0_23_40
*833 FILLER_0_23_56
*834 FILLER_0_23_64
*835 FILLER_0_23_68
*836 FILLER_0_23_72
*837 FILLER_0_23_8
*838 FILLER_0_23_88
*839 FILLER_0_23_96
*840 FILLER_0_24_101
*841 FILLER_0_24_107
*842 FILLER_0_24_123
*843 FILLER_0_24_131
*844 FILLER_0_24_135
*845 FILLER_0_24_138
*846 FILLER_0_24_14
*847 FILLER_0_24_158
*848 FILLER_0_24_167
*849 FILLER_0_24_171
*850 FILLER_0_24_177
*851 FILLER_0_24_179
*852 FILLER_0_24_190
*853 FILLER_0_24_206
*854 FILLER_0_24_236
*855 FILLER_0_24_244
*856 FILLER_0_24_269
*857 FILLER_0_24_30
*858 FILLER_0_24_301
*859 FILLER_0_24_309
*860 FILLER_0_24_313
*861 FILLER_0_24_317
*862 FILLER_0_24_34
*863 FILLER_0_24_37
*864 FILLER_0_25_136
*865 FILLER_0_25_142
*866 FILLER_0_25_144
*867 FILLER_0_25_151
*868 FILLER_0_25_159
*869 FILLER_0_25_178
*870 FILLER_0_25_180
*871 FILLER_0_25_203
*872 FILLER_0_25_207
*873 FILLER_0_25_209
*874 FILLER_0_25_218
*875 FILLER_0_25_222
*876 FILLER_0_25_244
*877 FILLER_0_25_248
*878 FILLER_0_25_256
*879 FILLER_0_25_259
*880 FILLER_0_25_275
*881 FILLER_0_25_279
*882 FILLER_0_25_282
*883 FILLER_0_25_314
*884 FILLER_0_25_322
*885 FILLER_0_25_324
*886 FILLER_0_25_40
*887 FILLER_0_25_56
*888 FILLER_0_25_64
*889 FILLER_0_25_68
*890 FILLER_0_25_72
*891 FILLER_0_25_8
*892 FILLER_0_26_101
*893 FILLER_0_26_107
*894 FILLER_0_26_123
*895 FILLER_0_26_131
*896 FILLER_0_26_135
*897 FILLER_0_26_138
*898 FILLER_0_26_158
*899 FILLER_0_26_165
*900 FILLER_0_26_169
*901 FILLER_0_26_173
*902 FILLER_0_26_177
*903 FILLER_0_26_191
*904 FILLER_0_26_195
*905 FILLER_0_26_197
*906 FILLER_0_26_212
*907 FILLER_0_26_216
*908 FILLER_0_26_24
*909 FILLER_0_26_261
*910 FILLER_0_26_293
*911 FILLER_0_26_309
*912 FILLER_0_26_313
*913 FILLER_0_26_317
*914 FILLER_0_26_32
*915 FILLER_0_26_34
*916 FILLER_0_26_37
*917 FILLER_0_26_8
*918 FILLER_0_27_12
*919 FILLER_0_27_136
*920 FILLER_0_27_142
*921 FILLER_0_27_144
*922 FILLER_0_27_173
*923 FILLER_0_27_184
*924 FILLER_0_27_188
*925 FILLER_0_27_192
*926 FILLER_0_27_205
*927 FILLER_0_27_209
*928 FILLER_0_27_228
*929 FILLER_0_27_232
*930 FILLER_0_27_234
*931 FILLER_0_27_251
*932 FILLER_0_27_255
*933 FILLER_0_27_259
*934 FILLER_0_27_275
*935 FILLER_0_27_279
*936 FILLER_0_27_282
*937 FILLER_0_27_314
*938 FILLER_0_27_322
*939 FILLER_0_27_324
*940 FILLER_0_27_44
*941 FILLER_0_27_60
*942 FILLER_0_27_68
*943 FILLER_0_27_72
*944 FILLER_0_27_8
*945 FILLER_0_28_101
*946 FILLER_0_28_107
*947 FILLER_0_28_12
*948 FILLER_0_28_139
*949 FILLER_0_28_143
*950 FILLER_0_28_151
*951 FILLER_0_28_161
*952 FILLER_0_28_168
*953 FILLER_0_28_172
*954 FILLER_0_28_174
*955 FILLER_0_28_199
*956 FILLER_0_28_215
*957 FILLER_0_28_228
*958 FILLER_0_28_232
*959 FILLER_0_28_236
*960 FILLER_0_28_238
*961 FILLER_0_28_253
*962 FILLER_0_28_28
*963 FILLER_0_28_285
*964 FILLER_0_28_301
*965 FILLER_0_28_309
*966 FILLER_0_28_313
*967 FILLER_0_28_317
*968 FILLER_0_28_32
*969 FILLER_0_28_321
*970 FILLER_0_28_34
*971 FILLER_0_28_37
*972 FILLER_0_28_8
*973 FILLER_0_29_12
*974 FILLER_0_29_136
*975 FILLER_0_29_142
*976 FILLER_0_29_174
*977 FILLER_0_29_182
*978 FILLER_0_29_186
*979 FILLER_0_29_189
*980 FILLER_0_29_205
*981 FILLER_0_29_209
*982 FILLER_0_29_212
*983 FILLER_0_29_276
*984 FILLER_0_29_282
*985 FILLER_0_29_314
*986 FILLER_0_29_322
*987 FILLER_0_29_44
*988 FILLER_0_29_60
*989 FILLER_0_29_68
*990 FILLER_0_29_72
*991 FILLER_0_29_8
*992 FILLER_0_2_101
*993 FILLER_0_2_107
*994 FILLER_0_2_171
*995 FILLER_0_2_177
*996 FILLER_0_2_2
*997 FILLER_0_2_241
*998 FILLER_0_2_247
*999 FILLER_0_2_311
*1000 FILLER_0_2_317
*1001 FILLER_0_2_321
*1002 FILLER_0_2_34
*1003 FILLER_0_2_37
*1004 FILLER_0_30_101
*1005 FILLER_0_30_107
*1006 FILLER_0_30_12
*1007 FILLER_0_30_171
*1008 FILLER_0_30_177
*1009 FILLER_0_30_241
*1010 FILLER_0_30_247
*1011 FILLER_0_30_28
*1012 FILLER_0_30_311
*1013 FILLER_0_30_317
*1014 FILLER_0_30_32
*1015 FILLER_0_30_34
*1016 FILLER_0_30_37
*1017 FILLER_0_30_8
*1018 FILLER_0_31_136
*1019 FILLER_0_31_142
*1020 FILLER_0_31_2
*1021 FILLER_0_31_206
*1022 FILLER_0_31_212
*1023 FILLER_0_31_276
*1024 FILLER_0_31_282
*1025 FILLER_0_31_314
*1026 FILLER_0_31_322
*1027 FILLER_0_31_324
*1028 FILLER_0_31_66
*1029 FILLER_0_31_72
*1030 FILLER_0_32_101
*1031 FILLER_0_32_107
*1032 FILLER_0_32_171
*1033 FILLER_0_32_177
*1034 FILLER_0_32_2
*1035 FILLER_0_32_241
*1036 FILLER_0_32_247
*1037 FILLER_0_32_311
*1038 FILLER_0_32_317
*1039 FILLER_0_32_321
*1040 FILLER_0_32_34
*1041 FILLER_0_32_37
*1042 FILLER_0_33_136
*1043 FILLER_0_33_142
*1044 FILLER_0_33_2
*1045 FILLER_0_33_206
*1046 FILLER_0_33_212
*1047 FILLER_0_33_276
*1048 FILLER_0_33_282
*1049 FILLER_0_33_314
*1050 FILLER_0_33_322
*1051 FILLER_0_33_324
*1052 FILLER_0_33_66
*1053 FILLER_0_33_72
*1054 FILLER_0_34_101
*1055 FILLER_0_34_107
*1056 FILLER_0_34_171
*1057 FILLER_0_34_177
*1058 FILLER_0_34_2
*1059 FILLER_0_34_241
*1060 FILLER_0_34_247
*1061 FILLER_0_34_311
*1062 FILLER_0_34_317
*1063 FILLER_0_34_321
*1064 FILLER_0_34_34
*1065 FILLER_0_34_37
*1066 FILLER_0_35_136
*1067 FILLER_0_35_142
*1068 FILLER_0_35_2
*1069 FILLER_0_35_206
*1070 FILLER_0_35_212
*1071 FILLER_0_35_276
*1072 FILLER_0_35_282
*1073 FILLER_0_35_314
*1074 FILLER_0_35_322
*1075 FILLER_0_35_66
*1076 FILLER_0_35_72
*1077 FILLER_0_36_101
*1078 FILLER_0_36_107
*1079 FILLER_0_36_171
*1080 FILLER_0_36_177
*1081 FILLER_0_36_2
*1082 FILLER_0_36_241
*1083 FILLER_0_36_247
*1084 FILLER_0_36_311
*1085 FILLER_0_36_317
*1086 FILLER_0_36_34
*1087 FILLER_0_36_37
*1088 FILLER_0_37_136
*1089 FILLER_0_37_142
*1090 FILLER_0_37_2
*1091 FILLER_0_37_206
*1092 FILLER_0_37_212
*1093 FILLER_0_37_276
*1094 FILLER_0_37_282
*1095 FILLER_0_37_314
*1096 FILLER_0_37_318
*1097 FILLER_0_37_321
*1098 FILLER_0_37_66
*1099 FILLER_0_37_72
*1100 FILLER_0_38_101
*1101 FILLER_0_38_107
*1102 FILLER_0_38_171
*1103 FILLER_0_38_177
*1104 FILLER_0_38_2
*1105 FILLER_0_38_241
*1106 FILLER_0_38_247
*1107 FILLER_0_38_311
*1108 FILLER_0_38_317
*1109 FILLER_0_38_34
*1110 FILLER_0_38_37
*1111 FILLER_0_39_136
*1112 FILLER_0_39_142
*1113 FILLER_0_39_2
*1114 FILLER_0_39_206
*1115 FILLER_0_39_212
*1116 FILLER_0_39_276
*1117 FILLER_0_39_282
*1118 FILLER_0_39_314
*1119 FILLER_0_39_322
*1120 FILLER_0_39_66
*1121 FILLER_0_39_72
*1122 FILLER_0_3_136
*1123 FILLER_0_3_142
*1124 FILLER_0_3_2
*1125 FILLER_0_3_206
*1126 FILLER_0_3_212
*1127 FILLER_0_3_276
*1128 FILLER_0_3_282
*1129 FILLER_0_3_314
*1130 FILLER_0_3_322
*1131 FILLER_0_3_66
*1132 FILLER_0_3_72
*1133 FILLER_0_40_101
*1134 FILLER_0_40_107
*1135 FILLER_0_40_171
*1136 FILLER_0_40_177
*1137 FILLER_0_40_2
*1138 FILLER_0_40_241
*1139 FILLER_0_40_247
*1140 FILLER_0_40_311
*1141 FILLER_0_40_317
*1142 FILLER_0_40_34
*1143 FILLER_0_40_37
*1144 FILLER_0_41_104
*1145 FILLER_0_41_120
*1146 FILLER_0_41_126
*1147 FILLER_0_41_130
*1148 FILLER_0_41_139
*1149 FILLER_0_41_142
*1150 FILLER_0_41_174
*1151 FILLER_0_41_178
*1152 FILLER_0_41_181
*1153 FILLER_0_41_197
*1154 FILLER_0_41_2
*1155 FILLER_0_41_205
*1156 FILLER_0_41_209
*1157 FILLER_0_41_212
*1158 FILLER_0_41_218
*1159 FILLER_0_41_250
*1160 FILLER_0_41_266
*1161 FILLER_0_41_274
*1162 FILLER_0_41_278
*1163 FILLER_0_41_282
*1164 FILLER_0_41_314
*1165 FILLER_0_41_318
*1166 FILLER_0_41_321
*1167 FILLER_0_41_66
*1168 FILLER_0_41_72
*1169 FILLER_0_42_104
*1170 FILLER_0_42_112
*1171 FILLER_0_42_116
*1172 FILLER_0_42_138
*1173 FILLER_0_42_172
*1174 FILLER_0_42_174
*1175 FILLER_0_42_199
*1176 FILLER_0_42_2
*1177 FILLER_0_42_203
*1178 FILLER_0_42_224
*1179 FILLER_0_42_232
*1180 FILLER_0_42_236
*1181 FILLER_0_42_240
*1182 FILLER_0_42_274
*1183 FILLER_0_42_290
*1184 FILLER_0_42_298
*1185 FILLER_0_42_302
*1186 FILLER_0_42_308
*1187 FILLER_0_42_310
*1188 FILLER_0_42_36
*1189 FILLER_0_42_70
*1190 FILLER_0_4_101
*1191 FILLER_0_4_107
*1192 FILLER_0_4_171
*1193 FILLER_0_4_177
*1194 FILLER_0_4_2
*1195 FILLER_0_4_241
*1196 FILLER_0_4_247
*1197 FILLER_0_4_311
*1198 FILLER_0_4_317
*1199 FILLER_0_4_321
*1200 FILLER_0_4_34
*1201 FILLER_0_4_37
*1202 FILLER_0_5_136
*1203 FILLER_0_5_142
*1204 FILLER_0_5_2
*1205 FILLER_0_5_206
*1206 FILLER_0_5_212
*1207 FILLER_0_5_276
*1208 FILLER_0_5_282
*1209 FILLER_0_5_314
*1210 FILLER_0_5_318
*1211 FILLER_0_5_321
*1212 FILLER_0_5_66
*1213 FILLER_0_5_72
*1214 FILLER_0_6_101
*1215 FILLER_0_6_107
*1216 FILLER_0_6_171
*1217 FILLER_0_6_177
*1218 FILLER_0_6_2
*1219 FILLER_0_6_241
*1220 FILLER_0_6_247
*1221 FILLER_0_6_311
*1222 FILLER_0_6_317
*1223 FILLER_0_6_34
*1224 FILLER_0_6_37
*1225 FILLER_0_7_136
*1226 FILLER_0_7_142
*1227 FILLER_0_7_2
*1228 FILLER_0_7_206
*1229 FILLER_0_7_212
*1230 FILLER_0_7_276
*1231 FILLER_0_7_282
*1232 FILLER_0_7_314
*1233 FILLER_0_7_322
*1234 FILLER_0_7_324
*1235 FILLER_0_7_66
*1236 FILLER_0_7_72
*1237 FILLER_0_8_101
*1238 FILLER_0_8_107
*1239 FILLER_0_8_171
*1240 FILLER_0_8_177
*1241 FILLER_0_8_2
*1242 FILLER_0_8_241
*1243 FILLER_0_8_247
*1244 FILLER_0_8_311
*1245 FILLER_0_8_317
*1246 FILLER_0_8_321
*1247 FILLER_0_8_34
*1248 FILLER_0_8_37
*1249 FILLER_0_9_136
*1250 FILLER_0_9_142
*1251 FILLER_0_9_2
*1252 FILLER_0_9_206
*1253 FILLER_0_9_212
*1254 FILLER_0_9_276
*1255 FILLER_0_9_282
*1256 FILLER_0_9_314
*1257 FILLER_0_9_322
*1258 FILLER_0_9_324
*1259 FILLER_0_9_66
*1260 FILLER_0_9_72
*1261 PHY_EDGE_ROW_0_Left_43
*1262 PHY_EDGE_ROW_0_Right_0
*1263 PHY_EDGE_ROW_10_Left_53
*1264 PHY_EDGE_ROW_10_Right_10
*1265 PHY_EDGE_ROW_11_Left_54
*1266 PHY_EDGE_ROW_11_Right_11
*1267 PHY_EDGE_ROW_12_Left_55
*1268 PHY_EDGE_ROW_12_Right_12
*1269 PHY_EDGE_ROW_13_Left_56
*1270 PHY_EDGE_ROW_13_Right_13
*1271 PHY_EDGE_ROW_14_Left_57
*1272 PHY_EDGE_ROW_14_Right_14
*1273 PHY_EDGE_ROW_15_Left_58
*1274 PHY_EDGE_ROW_15_Right_15
*1275 PHY_EDGE_ROW_16_Left_59
*1276 PHY_EDGE_ROW_16_Right_16
*1277 PHY_EDGE_ROW_17_Left_60
*1278 PHY_EDGE_ROW_17_Right_17
*1279 PHY_EDGE_ROW_18_Left_61
*1280 PHY_EDGE_ROW_18_Right_18
*1281 PHY_EDGE_ROW_19_Left_62
*1282 PHY_EDGE_ROW_19_Right_19
*1283 PHY_EDGE_ROW_1_Left_44
*1284 PHY_EDGE_ROW_1_Right_1
*1285 PHY_EDGE_ROW_20_Left_63
*1286 PHY_EDGE_ROW_20_Right_20
*1287 PHY_EDGE_ROW_21_Left_64
*1288 PHY_EDGE_ROW_21_Right_21
*1289 PHY_EDGE_ROW_22_Left_65
*1290 PHY_EDGE_ROW_22_Right_22
*1291 PHY_EDGE_ROW_23_Left_66
*1292 PHY_EDGE_ROW_23_Right_23
*1293 PHY_EDGE_ROW_24_Left_67
*1294 PHY_EDGE_ROW_24_Right_24
*1295 PHY_EDGE_ROW_25_Left_68
*1296 PHY_EDGE_ROW_25_Right_25
*1297 PHY_EDGE_ROW_26_Left_69
*1298 PHY_EDGE_ROW_26_Right_26
*1299 PHY_EDGE_ROW_27_Left_70
*1300 PHY_EDGE_ROW_27_Right_27
*1301 PHY_EDGE_ROW_28_Left_71
*1302 PHY_EDGE_ROW_28_Right_28
*1303 PHY_EDGE_ROW_29_Left_72
*1304 PHY_EDGE_ROW_29_Right_29
*1305 PHY_EDGE_ROW_2_Left_45
*1306 PHY_EDGE_ROW_2_Right_2
*1307 PHY_EDGE_ROW_30_Left_73
*1308 PHY_EDGE_ROW_30_Right_30
*1309 PHY_EDGE_ROW_31_Left_74
*1310 PHY_EDGE_ROW_31_Right_31
*1311 PHY_EDGE_ROW_32_Left_75
*1312 PHY_EDGE_ROW_32_Right_32
*1313 PHY_EDGE_ROW_33_Left_76
*1314 PHY_EDGE_ROW_33_Right_33
*1315 PHY_EDGE_ROW_34_Left_77
*1316 PHY_EDGE_ROW_34_Right_34
*1317 PHY_EDGE_ROW_35_Left_78
*1318 PHY_EDGE_ROW_35_Right_35
*1319 PHY_EDGE_ROW_36_Left_79
*1320 PHY_EDGE_ROW_36_Right_36
*1321 PHY_EDGE_ROW_37_Left_80
*1322 PHY_EDGE_ROW_37_Right_37
*1323 PHY_EDGE_ROW_38_Left_81
*1324 PHY_EDGE_ROW_38_Right_38
*1325 PHY_EDGE_ROW_39_Left_82
*1326 PHY_EDGE_ROW_39_Right_39
*1327 PHY_EDGE_ROW_3_Left_46
*1328 PHY_EDGE_ROW_3_Right_3
*1329 PHY_EDGE_ROW_40_Left_83
*1330 PHY_EDGE_ROW_40_Right_40
*1331 PHY_EDGE_ROW_41_Left_84
*1332 PHY_EDGE_ROW_41_Right_41
*1333 PHY_EDGE_ROW_42_Left_85
*1334 PHY_EDGE_ROW_42_Right_42
*1335 PHY_EDGE_ROW_4_Left_47
*1336 PHY_EDGE_ROW_4_Right_4
*1337 PHY_EDGE_ROW_5_Left_48
*1338 PHY_EDGE_ROW_5_Right_5
*1339 PHY_EDGE_ROW_6_Left_49
*1340 PHY_EDGE_ROW_6_Right_6
*1341 PHY_EDGE_ROW_7_Left_50
*1342 PHY_EDGE_ROW_7_Right_7
*1343 PHY_EDGE_ROW_8_Left_51
*1344 PHY_EDGE_ROW_8_Right_8
*1345 PHY_EDGE_ROW_9_Left_52
*1346 PHY_EDGE_ROW_9_Right_9
*1347 TAP_TAPCELL_ROW_0_86
*1348 TAP_TAPCELL_ROW_0_87
*1349 TAP_TAPCELL_ROW_0_88
*1350 TAP_TAPCELL_ROW_0_89
*1351 TAP_TAPCELL_ROW_0_90
*1352 TAP_TAPCELL_ROW_0_91
*1353 TAP_TAPCELL_ROW_0_92
*1354 TAP_TAPCELL_ROW_0_93
*1355 TAP_TAPCELL_ROW_0_94
*1356 TAP_TAPCELL_ROW_10_135
*1357 TAP_TAPCELL_ROW_10_136
*1358 TAP_TAPCELL_ROW_10_137
*1359 TAP_TAPCELL_ROW_10_138
*1360 TAP_TAPCELL_ROW_10_139
*1361 TAP_TAPCELL_ROW_11_140
*1362 TAP_TAPCELL_ROW_11_141
*1363 TAP_TAPCELL_ROW_11_142
*1364 TAP_TAPCELL_ROW_11_143
*1365 TAP_TAPCELL_ROW_12_144
*1366 TAP_TAPCELL_ROW_12_145
*1367 TAP_TAPCELL_ROW_12_146
*1368 TAP_TAPCELL_ROW_12_147
*1369 TAP_TAPCELL_ROW_12_148
*1370 TAP_TAPCELL_ROW_13_149
*1371 TAP_TAPCELL_ROW_13_150
*1372 TAP_TAPCELL_ROW_13_151
*1373 TAP_TAPCELL_ROW_13_152
*1374 TAP_TAPCELL_ROW_14_153
*1375 TAP_TAPCELL_ROW_14_154
*1376 TAP_TAPCELL_ROW_14_155
*1377 TAP_TAPCELL_ROW_14_156
*1378 TAP_TAPCELL_ROW_14_157
*1379 TAP_TAPCELL_ROW_15_158
*1380 TAP_TAPCELL_ROW_15_159
*1381 TAP_TAPCELL_ROW_15_160
*1382 TAP_TAPCELL_ROW_15_161
*1383 TAP_TAPCELL_ROW_16_162
*1384 TAP_TAPCELL_ROW_16_163
*1385 TAP_TAPCELL_ROW_16_164
*1386 TAP_TAPCELL_ROW_16_165
*1387 TAP_TAPCELL_ROW_16_166
*1388 TAP_TAPCELL_ROW_17_167
*1389 TAP_TAPCELL_ROW_17_168
*1390 TAP_TAPCELL_ROW_17_169
*1391 TAP_TAPCELL_ROW_17_170
*1392 TAP_TAPCELL_ROW_18_171
*1393 TAP_TAPCELL_ROW_18_172
*1394 TAP_TAPCELL_ROW_18_173
*1395 TAP_TAPCELL_ROW_18_174
*1396 TAP_TAPCELL_ROW_18_175
*1397 TAP_TAPCELL_ROW_19_176
*1398 TAP_TAPCELL_ROW_19_177
*1399 TAP_TAPCELL_ROW_19_178
*1400 TAP_TAPCELL_ROW_19_179
*1401 TAP_TAPCELL_ROW_1_95
*1402 TAP_TAPCELL_ROW_1_96
*1403 TAP_TAPCELL_ROW_1_97
*1404 TAP_TAPCELL_ROW_1_98
*1405 TAP_TAPCELL_ROW_20_180
*1406 TAP_TAPCELL_ROW_20_181
*1407 TAP_TAPCELL_ROW_20_182
*1408 TAP_TAPCELL_ROW_20_183
*1409 TAP_TAPCELL_ROW_20_184
*1410 TAP_TAPCELL_ROW_21_185
*1411 TAP_TAPCELL_ROW_21_186
*1412 TAP_TAPCELL_ROW_21_187
*1413 TAP_TAPCELL_ROW_21_188
*1414 TAP_TAPCELL_ROW_22_189
*1415 TAP_TAPCELL_ROW_22_190
*1416 TAP_TAPCELL_ROW_22_191
*1417 TAP_TAPCELL_ROW_22_192
*1418 TAP_TAPCELL_ROW_22_193
*1419 TAP_TAPCELL_ROW_23_194
*1420 TAP_TAPCELL_ROW_23_195
*1421 TAP_TAPCELL_ROW_23_196
*1422 TAP_TAPCELL_ROW_23_197
*1423 TAP_TAPCELL_ROW_24_198
*1424 TAP_TAPCELL_ROW_24_199
*1425 TAP_TAPCELL_ROW_24_200
*1426 TAP_TAPCELL_ROW_24_201
*1427 TAP_TAPCELL_ROW_24_202
*1428 TAP_TAPCELL_ROW_25_203
*1429 TAP_TAPCELL_ROW_25_204
*1430 TAP_TAPCELL_ROW_25_205
*1431 TAP_TAPCELL_ROW_25_206
*1432 TAP_TAPCELL_ROW_26_207
*1433 TAP_TAPCELL_ROW_26_208
*1434 TAP_TAPCELL_ROW_26_209
*1435 TAP_TAPCELL_ROW_26_210
*1436 TAP_TAPCELL_ROW_26_211
*1437 TAP_TAPCELL_ROW_27_212
*1438 TAP_TAPCELL_ROW_27_213
*1439 TAP_TAPCELL_ROW_27_214
*1440 TAP_TAPCELL_ROW_27_215
*1441 TAP_TAPCELL_ROW_28_216
*1442 TAP_TAPCELL_ROW_28_217
*1443 TAP_TAPCELL_ROW_28_218
*1444 TAP_TAPCELL_ROW_28_219
*1445 TAP_TAPCELL_ROW_28_220
*1446 TAP_TAPCELL_ROW_29_221
*1447 TAP_TAPCELL_ROW_29_222
*1448 TAP_TAPCELL_ROW_29_223
*1449 TAP_TAPCELL_ROW_29_224
*1450 TAP_TAPCELL_ROW_2_100
*1451 TAP_TAPCELL_ROW_2_101
*1452 TAP_TAPCELL_ROW_2_102
*1453 TAP_TAPCELL_ROW_2_103
*1454 TAP_TAPCELL_ROW_2_99
*1455 TAP_TAPCELL_ROW_30_225
*1456 TAP_TAPCELL_ROW_30_226
*1457 TAP_TAPCELL_ROW_30_227
*1458 TAP_TAPCELL_ROW_30_228
*1459 TAP_TAPCELL_ROW_30_229
*1460 TAP_TAPCELL_ROW_31_230
*1461 TAP_TAPCELL_ROW_31_231
*1462 TAP_TAPCELL_ROW_31_232
*1463 TAP_TAPCELL_ROW_31_233
*1464 TAP_TAPCELL_ROW_32_234
*1465 TAP_TAPCELL_ROW_32_235
*1466 TAP_TAPCELL_ROW_32_236
*1467 TAP_TAPCELL_ROW_32_237
*1468 TAP_TAPCELL_ROW_32_238
*1469 TAP_TAPCELL_ROW_33_239
*1470 TAP_TAPCELL_ROW_33_240
*1471 TAP_TAPCELL_ROW_33_241