*SPEF "ieee 1481-1999"
*DESIGN "input_mux"
*DATE "11:11:11 Fri 11 11, 1111"
*VENDOR "OpenRCX"
*PROGRAM "Parallel Extraction"
*VERSION "1.0"
*DESIGN_FLOW "NAME_SCOPE LOCAL" "PIN_CAP NONE"
*DIVIDER /
*DELIMITER :
*BUS_DELIMITER []
*T_UNIT 1 NS
*C_UNIT 1 PF
*R_UNIT 1 OHM
*L_UNIT 1 HENRY

*NAME_MAP
*1 clk
*2 in[0]
*3 in[10]
*4 in[11]
*5 in[12]
*6 in[13]
*7 in[14]
*8 in[15]
*9 in[16]
*10 in[17]
*11 in[1]
*12 in[2]
*13 in[3]
*14 in[4]
*15 in[5]
*16 in[6]
*17 in[7]
*18 in[8]
*19 in[9]
*20 proj_clk[0]
*21 proj_clk[1]
*22 proj_clk[2]
*23 proj_clk[3]
*24 proj_clk[4]
*25 proj_clk[5]
*26 proj_clk[6]
*27 proj_clk[7]
*28 proj_in[0]
*29 proj_in[100]
*30 proj_in[101]
*31 proj_in[102]
*32 proj_in[103]
*33 proj_in[104]
*34 proj_in[105]
*35 proj_in[106]
*36 proj_in[107]
*37 proj_in[108]
*38 proj_in[109]
*39 proj_in[10]
*40 proj_in[110]
*41 proj_in[111]
*42 proj_in[112]
*43 proj_in[113]
*44 proj_in[114]
*45 proj_in[115]
*46 proj_in[116]
*47 proj_in[117]
*48 proj_in[118]
*49 proj_in[119]
*50 proj_in[11]
*51 proj_in[120]
*52 proj_in[121]
*53 proj_in[122]
*54 proj_in[123]
*55 proj_in[124]
*56 proj_in[125]
*57 proj_in[126]
*58 proj_in[127]
*59 proj_in[128]
*60 proj_in[129]
*61 proj_in[12]
*62 proj_in[130]
*63 proj_in[131]
*64 proj_in[132]
*65 proj_in[133]
*66 proj_in[134]
*67 proj_in[135]
*68 proj_in[136]
*69 proj_in[137]
*70 proj_in[138]
*71 proj_in[139]
*72 proj_in[13]
*73 proj_in[140]
*74 proj_in[141]
*75 proj_in[142]
*76 proj_in[143]
*77 proj_in[14]
*78 proj_in[15]
*79 proj_in[16]
*80 proj_in[17]
*81 proj_in[18]
*82 proj_in[19]
*83 proj_in[1]
*84 proj_in[20]
*85 proj_in[21]
*86 proj_in[22]
*87 proj_in[23]
*88 proj_in[24]
*89 proj_in[25]
*90 proj_in[26]
*91 proj_in[27]
*92 proj_in[28]
*93 proj_in[29]
*94 proj_in[2]
*95 proj_in[30]
*96 proj_in[31]
*97 proj_in[32]
*98 proj_in[33]
*99 proj_in[34]
*100 proj_in[35]
*101 proj_in[36]
*102 proj_in[37]
*103 proj_in[38]
*104 proj_in[39]
*105 proj_in[3]
*106 proj_in[40]
*107 proj_in[41]
*108 proj_in[42]
*109 proj_in[43]
*110 proj_in[44]
*111 proj_in[45]
*112 proj_in[46]
*113 proj_in[47]
*114 proj_in[48]
*115 proj_in[49]
*116 proj_in[4]
*117 proj_in[50]
*118 proj_in[51]
*119 proj_in[52]
*120 proj_in[53]
*121 proj_in[54]
*122 proj_in[55]
*123 proj_in[56]
*124 proj_in[57]
*125 proj_in[58]
*126 proj_in[59]
*127 proj_in[5]
*128 proj_in[60]
*129 proj_in[61]
*130 proj_in[62]
*131 proj_in[63]
*132 proj_in[64]
*133 proj_in[65]
*134 proj_in[66]
*135 proj_in[67]
*136 proj_in[68]
*137 proj_in[69]
*138 proj_in[6]
*139 proj_in[70]
*140 proj_in[71]
*141 proj_in[72]
*142 proj_in[73]
*143 proj_in[74]
*144 proj_in[75]
*145 proj_in[76]
*146 proj_in[77]
*147 proj_in[78]
*148 proj_in[79]
*149 proj_in[7]
*150 proj_in[80]
*151 proj_in[81]
*152 proj_in[82]
*153 proj_in[83]
*154 proj_in[84]
*155 proj_in[85]
*156 proj_in[86]
*157 proj_in[87]
*158 proj_in[88]
*159 proj_in[89]
*160 proj_in[8]
*161 proj_in[90]
*162 proj_in[91]
*163 proj_in[92]
*164 proj_in[93]
*165 proj_in[94]
*166 proj_in[95]
*167 proj_in[96]
*168 proj_in[97]
*169 proj_in[98]
*170 proj_in[99]
*171 proj_in[9]
*172 proj_rst_n[0]
*173 proj_rst_n[1]
*174 proj_rst_n[2]
*175 proj_rst_n[3]
*176 proj_rst_n[4]
*177 proj_rst_n[5]
*178 proj_rst_n[6]
*179 proj_rst_n[7]
*180 rst_n
*181 sel[0]
*182 sel[1]
*183 sel[2]
*186 _000_
*187 _001_
*188 _002_
*189 _003_
*190 _004_
*191 _005_
*192 _006_
*193 _007_
*194 _008_
*195 _009_
*196 _010_
*197 _011_
*198 _012_
*199 _013_
*200 _014_
*201 _015_
*202 _016_
*203 _017_
*204 _018_
*205 _019_
*206 _020_
*207 _021_
*208 _022_
*209 _023_
*210 _024_
*211 _025_
*212 _026_
*213 _027_
*214 _028_
*215 _029_
*216 _030_
*217 _031_
*218 _032_
*219 _033_
*220 _034_
*221 _035_
*222 _036_
*223 _037_
*224 _038_
*225 _039_
*226 _040_
*227 _041_
*228 _042_
*229 _043_
*230 _044_
*231 _045_
*232 _046_
*233 _047_
*234 _048_
*235 _049_
*236 _050_
*237 _051_
*238 _052_
*239 _053_
*240 _054_
*241 _055_
*242 _056_
*243 _057_
*244 _058_
*245 _059_
*246 _060_
*247 _061_
*248 _062_
*249 _063_
*250 _064_
*251 _065_
*252 _066_
*253 _067_
*254 _068_
*255 _069_
*256 _070_
*257 _071_
*258 _072_
*259 _073_
*260 _074_
*261 _075_
*262 _076_
*263 _077_
*264 _078_
*265 _079_
*266 _080_
*267 _081_
*268 _082_
*269 _083_
*270 _084_
*271 _085_
*272 _086_
*273 _087_
*274 _088_
*275 _089_
*276 _090_
*277 _091_
*278 _092_
*279 _093_
*280 _094_
*281 _095_
*282 _096_
*283 _097_
*284 _098_
*285 _099_
*286 _100_
*287 _101_
*288 _102_
*289 _103_
*290 _104_
*291 _105_
*292 _106_
*293 _107_
*294 _108_
*295 _109_
*296 _110_
*297 _111_
*298 _112_
*299 _113_
*300 _114_
*301 _115_
*302 _116_
*303 _117_
*304 _118_
*305 _119_
*306 _120_
*307 _121_
*308 _122_
*309 _123_
*310 _124_
*311 _125_
*312 _126_
*313 _127_
*314 _128_
*315 _129_
*316 _130_
*317 _131_
*318 _132_
*319 _133_
*320 _134_
*321 _135_
*322 _136_
*323 _137_
*324 _138_
*325 _139_
*326 _140_
*327 _141_
*328 _142_
*329 _143_
*330 _144_
*331 _145_
*332 _146_
*333 _147_
*334 _148_
*335 _149_
*336 _150_
*337 _151_
*338 _152_
*339 _153_
*340 _154_
*341 _155_
*342 _156_
*343 _157_
*344 _158_
*345 _159_
*346 _160_
*347 _161_
*348 _162_
*349 _163_
*350 _164_
*351 _165_
*352 _166_
*353 _167_
*354 _168_
*355 _169_
*356 _170_
*357 _171_
*358 _172_
*359 _173_
*360 _174_
*361 _175_
*362 _176_
*363 _177_
*364 _178_
*365 _179_
*366 _180_
*367 _181_
*368 _182_
*369 _183_
*370 _184_
*371 _185_
*372 _186_
*373 _187_
*374 _188_
*375 _189_
*376 _190_
*377 _191_
*378 _192_
*379 _193_
*380 _194_
*381 _195_
*382 _196_
*383 _197_
*384 _198_
*385 _199_
*386 _200_
*387 _201_
*388 _202_
*389 _203_
*390 _204_
*391 _205_
*392 _206_
*393 _207_
*394 _208_
*395 _209_
*396 _210_
*397 _211_
*398 _212_
*399 _213_
*400 _214_
*401 _215_
*402 _216_
*403 _217_
*404 _218_
*405 _219_
*406 _220_
*407 _221_
*408 _222_
*409 _223_
*410 _224_
*411 _225_
*412 _226_
*413 _227_
*414 _228_
*415 _229_
*416 _230_
*417 _231_
*418 _232_
*419 _233_
*420 _234_
*421 _235_
*422 _236_
*423 _237_
*424 _238_
*425 _239_
*426 _240_
*427 _241_
*428 _242_
*429 _243_
*430 _244_
*431 _245_
*432 _246_
*433 _247_
*434 _248_
*435 _249_
*436 _250_
*437 _251_
*438 _252_
*439 _253_
*440 _254_
*441 _255_
*442 _256_
*443 _257_
*444 _258_
*445 _259_
*446 _260_
*447 _261_
*448 _262_
*449 _263_
*450 _264_
*451 _265_
*452 _266_
*453 _267_
*454 _268_
*455 _269_
*456 _270_
*457 _271_
*458 _272_
*459 _273_
*460 _274_
*461 _275_
*462 _276_
*463 _277_
*464 _278_
*465 _279_
*466 _280_
*467 _281_
*468 _282_
*469 _283_
*470 _284_
*471 _285_
*472 _286_
*473 _287_
*474 _289_
*475 _290_
*476 _291_
*477 _292_
*478 clknet_0__276_
*479 clknet_0_clk
*480 clknet_1_0__leaf__276_
*481 clknet_1_0__leaf_clk
*482 clknet_1_1__leaf__276_
*483 clknet_1_1__leaf_clk
*484 net1
*485 net10
*486 net100
*487 net101
*488 net102
*489 net103
*490 net104
*491 net105
*492 net106
*493 net107
*494 net108
*495 net109
*496 net11
*497 net110
*498 net111
*499 net112
*500 net113
*501 net114
*502 net115
*503 net116
*504 net117
*505 net118
*506 net119
*507 net12
*508 net120
*509 net121
*510 net122
*511 net123
*512 net124
*513 net125
*514 net126
*515 net127
*516 net128
*517 net129
*518 net13
*519 net130
*520 net131
*521 net132
*522 net133
*523 net134
*524 net135
*525 net136
*526 net137
*527 net138
*528 net139
*529 net14
*530 net140
*531 net141
*532 net142
*533 net143
*534 net144
*535 net145
*536 net146
*537 net147
*538 net148
*539 net149
*540 net15
*541 net150
*542 net151
*543 net152
*544 net153
*545 net154
*546 net155
*547 net156
*548 net157
*549 net158
*550 net159
*551 net16
*552 net160
*553 net161
*554 net162
*555 net163
*556 net164
*557 net165
*558 net166
*559 net167
*560 net168
*561 net169
*562 net17
*563 net170
*564 net171
*565 net172
*566 net173
*567 net174
*568 net175
*569 net176
*570 net177
*571 net178
*572 net179
*573 net18
*574 net180
*575 net181
*576 net182
*577 net183
*578 net184
*579 net185
*580 net186
*581 net187
*582 net188
*583 net19
*584 net2
*585 net20
*586 net21
*587 net22
*588 net23
*589 net24
*590 net25
*591 net26
*592 net27
*593 net28
*594 net29
*595 net3
*596 net30
*597 net31
*598 net32
*599 net33
*600 net34
*601 net35
*602 net36
*603 net37
*604 net38
*605 net39
*606 net4
*607 net40
*608 net41
*609 net42
*610 net43
*611 net44
*612 net45
*613 net46
*614 net47
*615 net48
*616 net49
*617 net5
*618 net50
*619 net51
*620 net52
*621 net53
*622 net54
*623 net55
*624 net56
*625 net57
*626 net58
*627 net59
*628 net6
*629 net60
*630 net61
*631 net62
*632 net63
*633 net64
*634 net65
*635 net66
*636 net67
*637 net68
*638 net69
*639 net7
*640 net70
*641 net71
*642 net72
*643 net73
*644 net74
*645 net75
*646 net76
*647 net77
*648 net78
*649 net79
*650 net8
*651 net80
*652 net81
*653 net82
*654 net83
*655 net84
*656 net85
*657 net86
*658 net87
*659 net88
*660 net89
*661 net9
*662 net90
*663 net91
*664 net92
*665 net93
*666 net94
*667 net95
*668 net96
*669 net97
*670 net98
*671 net99
*672 sel_reg\[0\]
*673 sel_reg\[1\]
*674 sel_reg\[2\]
*675 ANTENNA__320__A2
*676 ANTENNA__322__I
*677 ANTENNA__323__I
*678 ANTENNA__324__A2
*679 ANTENNA__327__A2
*680 ANTENNA__329__A2
*681 ANTENNA__331__A2
*682 ANTENNA__333__I
*683 ANTENNA__334__I
*684 ANTENNA__335__A2
*685 ANTENNA__338__A2
*686 ANTENNA__340__A2
*687 ANTENNA__342__A2
*688 ANTENNA__346__A2
*689 ANTENNA__349__A2
*690 ANTENNA__351__A2
*691 ANTENNA__353__A2
*692 ANTENNA__357__A2
*693 ANTENNA__360__A2
*694 ANTENNA__364__A2
*695 ANTENNA__420__A1
*696 ANTENNA__443__I
*697 ANTENNA__452__I
*698 ANTENNA__455__I
*699 ANTENNA__458__I
*700 ANTENNA__461__I
*701 ANTENNA__465__I
*702 ANTENNA__468__I
*703 ANTENNA__471__I
*704 ANTENNA__474__I
*705 ANTENNA__478__I
*706 ANTENNA__481__I
*707 ANTENNA__484__I
*708 ANTENNA__487__I
*709 ANTENNA__491__I
*710 ANTENNA__494__I
*711 ANTENNA__500__I
*712 ANTENNA__509__I
*713 ANTENNA__522__I
*714 ANTENNA__525__I
*715 ANTENNA__528__I
*716 ANTENNA__531__I
*717 ANTENNA__538__I
*718 ANTENNA__541__I
*719 ANTENNA__544__I
*720 ANTENNA__547__I
*721 ANTENNA__549__I
*722 ANTENNA__551__I
*723 ANTENNA__555__I
*724 ANTENNA__558__I
*725 ANTENNA__561__I
*726 ANTENNA__564__I
*727 ANTENNA__565__I
*728 ANTENNA__566__I
*729 ANTENNA__570__I
*730 ANTENNA__573__I
*731 ANTENNA__579__I
*732 ANTENNA__617__I
*733 ANTENNA__619__I
*734 ANTENNA__629__I
*735 ANTENNA__630__I
*736 ANTENNA__638__A1
*737 ANTENNA__642__A1
*738 ANTENNA__644__A1
*739 ANTENNA__726__I
*740 ANTENNA__727__I
*741 ANTENNA__737__I
*742 ANTENNA__738__I
*743 ANTENNA_clkbuf_0_clk_I
*744 ANTENNA_input10_I
*745 ANTENNA_input11_I
*746 ANTENNA_input12_I
*747 ANTENNA_input13_I
*748 ANTENNA_input14_I
*749 ANTENNA_input15_I
*750 ANTENNA_input16_I
*751 ANTENNA_input17_I
*752 ANTENNA_input18_I
*753 ANTENNA_input19_I
*754 ANTENNA_input1_I
*755 ANTENNA_input20_I
*756 ANTENNA_input21_I
*757 ANTENNA_input22_I
*758 ANTENNA_input2_I
*759 ANTENNA_input3_I
*760 ANTENNA_input4_I
*761 ANTENNA_input5_I
*762 ANTENNA_input6_I
*763 ANTENNA_input7_I
*764 ANTENNA_input8_I
*765 ANTENNA_input9_I
*766 ANTENNA_output108_I
*767 ANTENNA_output112_I
*768 ANTENNA_output122_I
*769 ANTENNA_output124_I
*770 ANTENNA_output129_I
*771 ANTENNA_output141_I
*772 ANTENNA_output142_I
*773 ANTENNA_output153_I
*774 ANTENNA_output154_I
*775 ANTENNA_output163_I
*776 ANTENNA_output165_I
*777 ANTENNA_output166_I
*778 ANTENNA_output168_I
*779 ANTENNA_output170_I
*780 ANTENNA_output171_I
*781 ANTENNA_output177_I
*782 ANTENNA_output181_I
*783 ANTENNA_output23_I
*784 ANTENNA_output31_I
*785 ANTENNA_output32_I
*786 ANTENNA_output33_I
*787 ANTENNA_output38_I
*788 ANTENNA_output41_I
*789 ANTENNA_output47_I
*790 ANTENNA_output52_I
*791 ANTENNA_output58_I
*792 ANTENNA_output65_I
*793 ANTENNA_output78_I
*794 ANTENNA_output82_I
*795 ANTENNA_output85_I
*796 ANTENNA_output89_I
*797 ANTENNA_output91_I
*798 ANTENNA_output92_I
*799 ANTENNA_output94_I
*800 ANTENNA_output95_I
*801 FILLER_0_0_104
*802 FILLER_0_0_138
*803 FILLER_0_0_172
*804 FILLER_0_0_174
*805 FILLER_0_0_199
*806 FILLER_0_0_2
*807 FILLER_0_0_203
*808 FILLER_0_0_236
*809 FILLER_0_0_270
*810 FILLER_0_0_304
*811 FILLER_0_0_308
*812 FILLER_0_0_316
*813 FILLER_0_0_320
*814 FILLER_0_0_322
*815 FILLER_0_0_36
*816 FILLER_0_0_70
*817 FILLER_0_10_103
*818 FILLER_0_10_113
*819 FILLER_0_10_121
*820 FILLER_0_10_124
*821 FILLER_0_10_128
*822 FILLER_0_10_224
*823 FILLER_0_10_24
*824 FILLER_0_10_241
*825 FILLER_0_10_253
*826 FILLER_0_10_285
*827 FILLER_0_10_301
*828 FILLER_0_10_309
*829 FILLER_0_10_313
*830 FILLER_0_10_317
*831 FILLER_0_10_32
*832 FILLER_0_10_34
*833 FILLER_0_10_37
*834 FILLER_0_10_69
*835 FILLER_0_10_77
*836 FILLER_0_10_8
*837 FILLER_0_10_91
*838 FILLER_0_10_99
*839 FILLER_0_11_116
*840 FILLER_0_11_136
*841 FILLER_0_11_142
*842 FILLER_0_11_146
*843 FILLER_0_11_150
*844 FILLER_0_11_152
*845 FILLER_0_11_209
*846 FILLER_0_11_234
*847 FILLER_0_11_249
*848 FILLER_0_11_265
*849 FILLER_0_11_273
*850 FILLER_0_11_277
*851 FILLER_0_11_279
*852 FILLER_0_11_282
*853 FILLER_0_11_314
*854 FILLER_0_11_322
*855 FILLER_0_11_324
*856 FILLER_0_11_40
*857 FILLER_0_11_56
*858 FILLER_0_11_64
*859 FILLER_0_11_68
*860 FILLER_0_11_72
*861 FILLER_0_11_76
*862 FILLER_0_11_8
*863 FILLER_0_11_87
*864 FILLER_0_11_89
*865 FILLER_0_12_117
*866 FILLER_0_12_135
*867 FILLER_0_12_14
*868 FILLER_0_12_154
*869 FILLER_0_12_161
*870 FILLER_0_12_177
*871 FILLER_0_12_181
*872 FILLER_0_12_205
*873 FILLER_0_12_238
*874 FILLER_0_12_242
*875 FILLER_0_12_244
*876 FILLER_0_12_247
*877 FILLER_0_12_30
*878 FILLER_0_12_311
*879 FILLER_0_12_317
*880 FILLER_0_12_34
*881 FILLER_0_12_37
*882 FILLER_0_12_69
*883 FILLER_0_12_87
*884 FILLER_0_12_91
*885 FILLER_0_13_103
*886 FILLER_0_13_107
*887 FILLER_0_13_123
*888 FILLER_0_13_125
*889 FILLER_0_13_130
*890 FILLER_0_13_142
*891 FILLER_0_13_208
*892 FILLER_0_13_218
*893 FILLER_0_13_222
*894 FILLER_0_13_249
*895 FILLER_0_13_265
*896 FILLER_0_13_273
*897 FILLER_0_13_277
*898 FILLER_0_13_279
*899 FILLER_0_13_282
*900 FILLER_0_13_314
*901 FILLER_0_13_322
*902 FILLER_0_13_324
*903 FILLER_0_13_40
*904 FILLER_0_13_56
*905 FILLER_0_13_64
*906 FILLER_0_13_68
*907 FILLER_0_13_72
*908 FILLER_0_13_76
*909 FILLER_0_13_78
*910 FILLER_0_13_8
*911 FILLER_0_13_95
*912 FILLER_0_14_117
*913 FILLER_0_14_142
*914 FILLER_0_14_185
*915 FILLER_0_14_189
*916 FILLER_0_14_202
*917 FILLER_0_14_220
*918 FILLER_0_14_224
*919 FILLER_0_14_226
*920 FILLER_0_14_233
*921 FILLER_0_14_237
*922 FILLER_0_14_24
*923 FILLER_0_14_261
*924 FILLER_0_14_293
*925 FILLER_0_14_309
*926 FILLER_0_14_313
*927 FILLER_0_14_317
*928 FILLER_0_14_32
*929 FILLER_0_14_34
*930 FILLER_0_14_37
*931 FILLER_0_14_53
*932 FILLER_0_14_61
*933 FILLER_0_14_63
*934 FILLER_0_14_8
*935 FILLER_0_14_88
*936 FILLER_0_14_90
*937 FILLER_0_15_107
*938 FILLER_0_15_111
*939 FILLER_0_15_115
*940 FILLER_0_15_117
*941 FILLER_0_15_126
*942 FILLER_0_15_130
*943 FILLER_0_15_133
*944 FILLER_0_15_137
*945 FILLER_0_15_159
*946 FILLER_0_15_166
*947 FILLER_0_15_170
*948 FILLER_0_15_172
*949 FILLER_0_15_183
*950 FILLER_0_15_195
*951 FILLER_0_15_209
*952 FILLER_0_15_212
*953 FILLER_0_15_214
*954 FILLER_0_15_247
*955 FILLER_0_15_279
*956 FILLER_0_15_282
*957 FILLER_0_15_314
*958 FILLER_0_15_322
*959 FILLER_0_15_324
*960 FILLER_0_15_40
*961 FILLER_0_15_56
*962 FILLER_0_15_64
*963 FILLER_0_15_68
*964 FILLER_0_15_72
*965 FILLER_0_15_76
*966 FILLER_0_15_8
*967 FILLER_0_15_91
*968 FILLER_0_15_97
*969 FILLER_0_16_113
*970 FILLER_0_16_141
*971 FILLER_0_16_162
*972 FILLER_0_16_169
*973 FILLER_0_16_173
*974 FILLER_0_16_187
*975 FILLER_0_16_191
*976 FILLER_0_16_203
*977 FILLER_0_16_222
*978 FILLER_0_16_238
*979 FILLER_0_16_24
*980 FILLER_0_16_242
*981 FILLER_0_16_244
*982 FILLER_0_16_247
*983 FILLER_0_16_265
*984 FILLER_0_16_280
*985 FILLER_0_16_312
*986 FILLER_0_16_314
*987 FILLER_0_16_317
*988 FILLER_0_16_32
*989 FILLER_0_16_34
*990 FILLER_0_16_37
*991 FILLER_0_16_53
*992 FILLER_0_16_61
*993 FILLER_0_16_8
*994 FILLER_0_16_87
*995 FILLER_0_17_112
*996 FILLER_0_17_116
*997 FILLER_0_17_137
*998 FILLER_0_17_139
*999 FILLER_0_17_153
*1000 FILLER_0_17_163
*1001 FILLER_0_17_189
*1002 FILLER_0_17_197
*1003 FILLER_0_17_201
*1004 FILLER_0_17_209
*1005 FILLER_0_17_212
*1006 FILLER_0_17_219
*1007 FILLER_0_17_243
*1008 FILLER_0_17_264
*1009 FILLER_0_17_282
*1010 FILLER_0_17_314
*1011 FILLER_0_17_322
*1012 FILLER_0_17_324
*1013 FILLER_0_17_40
*1014 FILLER_0_17_56
*1015 FILLER_0_17_64
*1016 FILLER_0_17_68
*1017 FILLER_0_17_72
*1018 FILLER_0_17_8
*1019 FILLER_0_17_86
*1020 FILLER_0_17_94
*1021 FILLER_0_18_107
*1022 FILLER_0_18_115
*1023 FILLER_0_18_133
*1024 FILLER_0_18_14
*1025 FILLER_0_18_141
*1026 FILLER_0_18_159
*1027 FILLER_0_18_169
*1028 FILLER_0_18_173
*1029 FILLER_0_18_177
*1030 FILLER_0_18_187
*1031 FILLER_0_18_189
*1032 FILLER_0_18_202
*1033 FILLER_0_18_225
*1034 FILLER_0_18_253
*1035 FILLER_0_18_261
*1036 FILLER_0_18_279
*1037 FILLER_0_18_30
*1038 FILLER_0_18_311
*1039 FILLER_0_18_317
*1040 FILLER_0_18_34
*1041 FILLER_0_18_37
*1042 FILLER_0_18_53
*1043 FILLER_0_18_61
*1044 FILLER_0_18_68
*1045 FILLER_0_18_92
*1046 FILLER_0_18_94
*1047 FILLER_0_19_112
*1048 FILLER_0_19_122
*1049 FILLER_0_19_127
*1050 FILLER_0_19_129
*1051 FILLER_0_19_134
*1052 FILLER_0_19_142
*1053 FILLER_0_19_146
*1054 FILLER_0_19_160
*1055 FILLER_0_19_170
*1056 FILLER_0_19_174
*1057 FILLER_0_19_207
*1058 FILLER_0_19_209
*1059 FILLER_0_19_212
*1060 FILLER_0_19_226
*1061 FILLER_0_19_240
*1062 FILLER_0_19_248
*1063 FILLER_0_19_250
*1064 FILLER_0_19_275
*1065 FILLER_0_19_279
*1066 FILLER_0_19_282
*1067 FILLER_0_19_314
*1068 FILLER_0_19_322
*1069 FILLER_0_19_324
*1070 FILLER_0_19_40
*1071 FILLER_0_19_56
*1072 FILLER_0_19_64
*1073 FILLER_0_19_68
*1074 FILLER_0_19_72
*1075 FILLER_0_19_8
*1076 FILLER_0_1_115
*1077 FILLER_0_1_123
*1078 FILLER_0_1_127
*1079 FILLER_0_1_129
*1080 FILLER_0_1_132
*1081 FILLER_0_1_139
*1082 FILLER_0_1_142
*1083 FILLER_0_1_158
*1084 FILLER_0_1_166
*1085 FILLER_0_1_172
*1086 FILLER_0_1_176
*1087 FILLER_0_1_178
*1088 FILLER_0_1_181
*1089 FILLER_0_1_187
*1090 FILLER_0_1_2
*1091 FILLER_0_1_203
*1092 FILLER_0_1_207
*1093 FILLER_0_1_209
*1094 FILLER_0_1_212
*1095 FILLER_0_1_228
*1096 FILLER_0_1_235
*1097 FILLER_0_1_267
*1098 FILLER_0_1_275
*1099 FILLER_0_1_279
*1100 FILLER_0_1_282
*1101 FILLER_0_1_292
*1102 FILLER_0_1_298
*1103 FILLER_0_1_314
*1104 FILLER_0_1_322
*1105 FILLER_0_1_34
*1106 FILLER_0_1_43
*1107 FILLER_0_1_47
*1108 FILLER_0_1_49
*1109 FILLER_0_1_52
*1110 FILLER_0_1_58
*1111 FILLER_0_1_62
*1112 FILLER_0_1_66
*1113 FILLER_0_1_72
*1114 FILLER_0_1_79
*1115 FILLER_0_1_83
*1116 FILLER_0_20_107
*1117 FILLER_0_20_115
*1118 FILLER_0_20_12
*1119 FILLER_0_20_124
*1120 FILLER_0_20_144
*1121 FILLER_0_20_169
*1122 FILLER_0_20_173
*1123 FILLER_0_20_183
*1124 FILLER_0_20_185
*1125 FILLER_0_20_192
*1126 FILLER_0_20_210
*1127 FILLER_0_20_214
*1128 FILLER_0_20_230
*1129 FILLER_0_20_241
*1130 FILLER_0_20_253
*1131 FILLER_0_20_269
*1132 FILLER_0_20_277
*1133 FILLER_0_20_28
*1134 FILLER_0_20_309
*1135 FILLER_0_20_313
*1136 FILLER_0_20_317
*1137 FILLER_0_20_32
*1138 FILLER_0_20_34
*1139 FILLER_0_20_37
*1140 FILLER_0_20_69
*1141 FILLER_0_20_77
*1142 FILLER_0_20_79
*1143 FILLER_0_20_8
*1144 FILLER_0_20_92
*1145 FILLER_0_20_96
*1146 FILLER_0_20_98
*1147 FILLER_0_21_111
*1148 FILLER_0_21_119
*1149 FILLER_0_21_12
*1150 FILLER_0_21_129
*1151 FILLER_0_21_133
*1152 FILLER_0_21_136
*1153 FILLER_0_21_142
*1154 FILLER_0_21_149
*1155 FILLER_0_21_151
*1156 FILLER_0_21_163
*1157 FILLER_0_21_167
*1158 FILLER_0_21_179
*1159 FILLER_0_21_206
*1160 FILLER_0_21_218
*1161 FILLER_0_21_236
*1162 FILLER_0_21_238
*1163 FILLER_0_21_245
*1164 FILLER_0_21_259
*1165 FILLER_0_21_267
*1166 FILLER_0_21_277
*1167 FILLER_0_21_279
*1168 FILLER_0_21_282
*1169 FILLER_0_21_314
*1170 FILLER_0_21_322
*1171 FILLER_0_21_324
*1172 FILLER_0_21_44
*1173 FILLER_0_21_60
*1174 FILLER_0_21_68
*1175 FILLER_0_21_8
*1176 FILLER_0_21_84
*1177 FILLER_0_21_86
*1178 FILLER_0_22_149
*1179 FILLER_0_22_162
*1180 FILLER_0_22_170
*1181 FILLER_0_22_174
*1182 FILLER_0_22_189
*1183 FILLER_0_22_193
*1184 FILLER_0_22_206
*1185 FILLER_0_22_208
*1186 FILLER_0_22_215
*1187 FILLER_0_22_225
*1188 FILLER_0_22_233
*1189 FILLER_0_22_24
*1190 FILLER_0_22_240
*1191 FILLER_0_22_244
*1192 FILLER_0_22_247
*1193 FILLER_0_22_264
*1194 FILLER_0_22_287
*1195 FILLER_0_22_303
*1196 FILLER_0_22_311
*1197 FILLER_0_22_317
*1198 FILLER_0_22_32
*1199 FILLER_0_22_34
*1200 FILLER_0_22_37
*1201 FILLER_0_22_69
*1202 FILLER_0_22_73
*1203 FILLER_0_22_8
*1204 FILLER_0_22_91
*1205 FILLER_0_23_111
*1206 FILLER_0_23_119
*1207 FILLER_0_23_128
*1208 FILLER_0_23_132
*1209 FILLER_0_23_171
*1210 FILLER_0_23_173
*1211 FILLER_0_23_186
*1212 FILLER_0_23_190
*1213 FILLER_0_23_205
*1214 FILLER_0_23_209
*1215 FILLER_0_23_218
*1216 FILLER_0_23_248
*1217 FILLER_0_23_252
*1218 FILLER_0_23_259
*1219 FILLER_0_23_267
*1220 FILLER_0_23_271
*1221 FILLER_0_23_279
*1222 FILLER_0_23_282
*1223 FILLER_0_23_314
*1224 FILLER_0_23_322
*1225 FILLER_0_23_324
*1226 FILLER_0_23_40
*1227 FILLER_0_23_56
*1228 FILLER_0_23_64
*1229 FILLER_0_23_68
*1230 FILLER_0_23_72
*1231 FILLER_0_23_74
*1232 FILLER_0_23_8
*1233 FILLER_0_23_91
*1234 FILLER_0_24_103
*1235 FILLER_0_24_107
*1236 FILLER_0_24_111
*1237 FILLER_0_24_131
*1238 FILLER_0_24_138
*1239 FILLER_0_24_14
*1240 FILLER_0_24_144
*1241 FILLER_0_24_148
*1242 FILLER_0_24_150
*1243 FILLER_0_24_157
*1244 FILLER_0_24_165
*1245 FILLER_0_24_177
*1246 FILLER_0_24_185
*1247 FILLER_0_24_203
*1248 FILLER_0_24_210
*1249 FILLER_0_24_214
*1250 FILLER_0_24_238
*1251 FILLER_0_24_247
*1252 FILLER_0_24_283
*1253 FILLER_0_24_30
*1254 FILLER_0_24_317
*1255 FILLER_0_24_34
*1256 FILLER_0_24_37
*1257 FILLER_0_24_85
*1258 FILLER_0_25_102
*1259 FILLER_0_25_130
*1260 FILLER_0_25_152
*1261 FILLER_0_25_164
*1262 FILLER_0_25_174
*1263 FILLER_0_25_176
*1264 FILLER_0_25_179
*1265 FILLER_0_25_195
*1266 FILLER_0_25_208
*1267 FILLER_0_25_212
*1268 FILLER_0_25_226
*1269 FILLER_0_25_242
*1270 FILLER_0_25_252
*1271 FILLER_0_25_256
*1272 FILLER_0_25_269
*1273 FILLER_0_25_279
*1274 FILLER_0_25_282
*1275 FILLER_0_25_314
*1276 FILLER_0_25_322
*1277 FILLER_0_25_324
*1278 FILLER_0_25_40
*1279 FILLER_0_25_56
*1280 FILLER_0_25_64
*1281 FILLER_0_25_68
*1282 FILLER_0_25_72
*1283 FILLER_0_25_76
*1284 FILLER_0_25_8
*1285 FILLER_0_25_83
*1286 FILLER_0_25_91
*1287 FILLER_0_25_95
*1288 FILLER_0_26_107
*1289 FILLER_0_26_123
*1290 FILLER_0_26_127
*1291 FILLER_0_26_131
*1292 FILLER_0_26_138
*1293 FILLER_0_26_140
*1294 FILLER_0_26_164
*1295 FILLER_0_26_172
*1296 FILLER_0_26_174
*1297 FILLER_0_26_201
*1298 FILLER_0_26_217
*1299 FILLER_0_26_221
*1300 FILLER_0_26_232
*1301 FILLER_0_26_24
*1302 FILLER_0_26_244
*1303 FILLER_0_26_253
*1304 FILLER_0_26_285
*1305 FILLER_0_26_301
*1306 FILLER_0_26_309
*1307 FILLER_0_26_313
*1308 FILLER_0_26_317
*1309 FILLER_0_26_32
*1310 FILLER_0_26_34
*1311 FILLER_0_26_37
*1312 FILLER_0_26_69
*1313 FILLER_0_26_8
*1314 FILLER_0_26_86
*1315 FILLER_0_26_88
*1316 FILLER_0_27_100
*1317 FILLER_0_27_102
*1318 FILLER_0_27_135
*1319 FILLER_0_27_139
*1320 FILLER_0_27_148
*1321 FILLER_0_27_164
*1322 FILLER_0_27_166
*1323 FILLER_0_27_190
*1324 FILLER_0_27_198
*1325 FILLER_0_27_202
*1326 FILLER_0_27_220
*1327 FILLER_0_27_252
*1328 FILLER_0_27_268
*1329 FILLER_0_27_276
*1330 FILLER_0_27_282
*1331 FILLER_0_27_314
*1332 FILLER_0_27_322
*1333 FILLER_0_27_324
*1334 FILLER_0_27_40
*1335 FILLER_0_27_56
*1336 FILLER_0_27_64
*1337 FILLER_0_27_68
*1338 FILLER_0_27_8
*1339 FILLER_0_27_84
*1340 FILLER_0_28_104
*1341 FILLER_0_28_107
*1342 FILLER_0_28_115
*1343 FILLER_0_28_127
*1344 FILLER_0_28_153
*1345 FILLER_0_28_159
*1346 FILLER_0_28_163
*1347 FILLER_0_28_183
*1348 FILLER_0_28_187
*1349 FILLER_0_28_219
*1350 FILLER_0_28_223
*1351 FILLER_0_28_24
*1352 FILLER_0_28_240
*1353 FILLER_0_28_244
*1354 FILLER_0_28_247
*1355 FILLER_0_28_311
*1356 FILLER_0_28_317
*1357 FILLER_0_28_32
*1358 FILLER_0_28_34
*1359 FILLER_0_28_37
*1360 FILLER_0_28_69
*1361 FILLER_0_28_8
*1362 FILLER_0_28_85
*1363 FILLER_0_28_95
*1364 FILLER_0_28_97
*1365 FILLER_0_29_122
*1366 FILLER_0_29_126
*1367 FILLER_0_29_139
*1368 FILLER_0_29_142
*1369 FILLER_0_29_172
*1370 FILLER_0_29_205
*1371 FILLER_0_29_209
*1372 FILLER_0_29_212
*1373 FILLER_0_29_220
*1374 FILLER_0_29_222
*1375 FILLER_0_29_229
*1376 FILLER_0_29_241
*1377 FILLER_0_29_273
*1378 FILLER_0_29_277
*1379 FILLER_0_29_279
*1380 FILLER_0_29_282
*1381 FILLER_0_29_314
*1382 FILLER_0_29_322
*1383 FILLER_0_29_324
*1384 FILLER_0_29_40
*1385 FILLER_0_29_56
*1386 FILLER_0_29_64
*1387 FILLER_0_29_68
*1388 FILLER_0_29_72
*1389 FILLER_0_29_8
*1390 FILLER_0_29_96
*1391 FILLER_0_2_101
*1392 FILLER_0_2_107
*1393 FILLER_0_2_171
*1394 FILLER_0_2_177
*1395 FILLER_0_2_2
*1396 FILLER_0_2_241
*1397 FILLER_0_2_247
*1398 FILLER_0_2_311
*1399 FILLER_0_2_317
*1400 FILLER_0_2_321
*1401 FILLER_0_2_34
*1402 FILLER_0_2_37
*1403 FILLER_0_30_107
*1404 FILLER_0_30_114
*1405 FILLER_0_30_118
*1406 FILLER_0_30_139
*1407 FILLER_0_30_14
*1408 FILLER_0_30_158
*1409 FILLER_0_30_166
*1410 FILLER_0_30_170
*1411 FILLER_0_30_174
*1412 FILLER_0_30_177
*1413 FILLER_0_30_198
*1414 FILLER_0_30_206
*1415 FILLER_0_30_223
*1416 FILLER_0_30_225
*1417 FILLER_0_30_232
*1418 FILLER_0_30_236
*1419 FILLER_0_30_238
*1420 FILLER_0_30_247
*1421 FILLER_0_30_30
*1422 FILLER_0_30_311
*1423 FILLER_0_30_317
*1424 FILLER_0_30_34
*1425 FILLER_0_30_37
*1426 FILLER_0_30_69
*1427 FILLER_0_31_103
*1428 FILLER_0_31_114
*1429 FILLER_0_31_134
*1430 FILLER_0_31_146
*1431 FILLER_0_31_159
*1432 FILLER_0_31_173
*1433 FILLER_0_31_181
*1434 FILLER_0_31_193
*1435 FILLER_0_31_206
*1436 FILLER_0_31_248
*1437 FILLER_0_31_282
*1438 FILLER_0_31_314
*1439 FILLER_0_31_322
*1440 FILLER_0_31_40
*1441 FILLER_0_31_56
*1442 FILLER_0_31_64
*1443 FILLER_0_31_68
*1444 FILLER_0_31_72
*1445 FILLER_0_31_8
*1446 FILLER_0_31_80
*1447 FILLER_0_31_84
*1448 FILLER_0_31_86
*1449 FILLER_0_32_103
*1450 FILLER_0_32_117
*1451 FILLER_0_32_133
*1452 FILLER_0_32_137
*1453 FILLER_0_32_141
*1454 FILLER_0_32_162
*1455 FILLER_0_32_164
*1456 FILLER_0_32_167
*1457 FILLER_0_32_177
*1458 FILLER_0_32_179
*1459 FILLER_0_32_191
*1460 FILLER_0_32_205
*1461 FILLER_0_32_209
*1462 FILLER_0_32_224
*1463 FILLER_0_32_228
*1464 FILLER_0_32_230
*1465 FILLER_0_32_237
*1466 FILLER_0_32_24
*1467 FILLER_0_32_247
*1468 FILLER_0_32_311
*1469 FILLER_0_32_317
*1470 FILLER_0_32_32
*1471 FILLER_0_32_34
*1472 FILLER_0_32_37
*1473 FILLER_0_32_69
*1474 FILLER_0_32_8
*1475 FILLER_0_32_85
*1476 FILLER_0_32_95
*1477 FILLER_0_33_104
*1478 FILLER_0_33_12
*1479 FILLER_0_33_121
*1480 FILLER_0_33_127
*1481 FILLER_0_33_139
*1482 FILLER_0_33_142
*1483 FILLER_0_33_144
*1484 FILLER_0_33_156
*1485 FILLER_0_33_158
*1486 FILLER_0_33_171
*1487 FILLER_0_33_173
*1488 FILLER_0_33_206
*1489 FILLER_0_33_220
*1490 FILLER_0_33_240
*1491 FILLER_0_33_272
*1492 FILLER_0_33_282
*1493 FILLER_0_33_314
*1494 FILLER_0_33_322
*1495 FILLER_0_33_324
*1496 FILLER_0_33_44
*1497 FILLER_0_33_60
*1498 FILLER_0_33_68
*1499 FILLER_0_33_72
*1500 FILLER_0_33_8
*1501 FILLER_0_34_101
*1502 FILLER_0_34_107
*1503 FILLER_0_34_115
*1504 FILLER_0_34_12
*1505 FILLER_0_34_131
*1506 FILLER_0_34_139
*1507 FILLER_0_34_145
*1508 FILLER_0_34_149
*1509 FILLER_0_34_151
*1510 FILLER_0_34_160
*1511 FILLER_0_34_162
*1512 FILLER_0_34_165
*1513 FILLER_0_34_173
*1514 FILLER_0_34_177
*1515 FILLER_0_34_190
*1516 FILLER_0_34_194
*1517 FILLER_0_34_207
*1518 FILLER_0_34_211
*1519 FILLER_0_34_213
*1520 FILLER_0_34_226
*1521 FILLER_0_34_242
*1522 FILLER_0_34_244
*1523 FILLER_0_34_247
*1524 FILLER_0_34_28
*1525 FILLER_0_34_311
*1526 FILLER_0_34_317
*1527 FILLER_0_34_32
*1528 FILLER_0_34_34
*1529 FILLER_0_34_37
*1530 FILLER_0_34_8
*1531 FILLER_0_35_12
*1532 FILLER_0_35_136
*1533 FILLER_0_35_142
*1534 FILLER_0_35_206
*1535 FILLER_0_35_212
*1536 FILLER_0_35_276
*1537 FILLER_0_35_282
*1538 FILLER_0_35_314
*1539 FILLER_0_35_322
*1540 FILLER_0_35_324
*1541 FILLER_0_35_44
*1542 FILLER_0_35_60
*1543 FILLER_0_35_68
*1544 FILLER_0_35_72
*1545 FILLER_0_35_8
*1546 FILLER_0_36_101
*1547 FILLER_0_36_107
*1548 FILLER_0_36_14
*1549 FILLER_0_36_171
*1550 FILLER_0_36_177
*1551 FILLER_0_36_18
*1552 FILLER_0_36_241
*1553 FILLER_0_36_247
*1554 FILLER_0_36_311
*1555 FILLER_0_36_317
*1556 FILLER_0_36_34
*1557 FILLER_0_36_37
*1558 FILLER_0_37_12
*1559 FILLER_0_37_136
*1560 FILLER_0_37_142
*1561 FILLER_0_37_16
*1562 FILLER_0_37_206
*1563 FILLER_0_37_212
*1564 FILLER_0_37_276
*1565 FILLER_0_37_282
*1566 FILLER_0_37_314
*1567 FILLER_0_37_322
*1568 FILLER_0_37_48
*1569 FILLER_0_37_64
*1570 FILLER_0_37_68
*1571 FILLER_0_37_72
*1572 FILLER_0_37_8
*1573 FILLER_0_38_101
*1574 FILLER_0_38_107
*1575 FILLER_0_38_12
*1576 FILLER_0_38_171
*1577 FILLER_0_38_177
*1578 FILLER_0_38_241
*1579 FILLER_0_38_247
*1580 FILLER_0_38_28
*1581 FILLER_0_38_311
*1582 FILLER_0_38_317
*1583 FILLER_0_38_32
*1584 FILLER_0_38_321
*1585 FILLER_0_38_34
*1586 FILLER_0_38_37
*1587 FILLER_0_38_8
*1588 FILLER_0_39_136
*1589 FILLER_0_39_142
*1590 FILLER_0_39_2
*1591 FILLER_0_39_206
*1592 FILLER_0_39_212
*1593 FILLER_0_39_276
*1594 FILLER_0_39_282
*1595 FILLER_0_39_314
*1596 FILLER_0_39_322
*1597 FILLER_0_39_66
*1598 FILLER_0_39_72
*1599 FILLER_0_3_136
*1600 FILLER_0_3_142
*1601 FILLER_0_3_2
*1602 FILLER_0_3_206
*1603 FILLER_0_3_212
*1604 FILLER_0_3_276
*1605 FILLER_0_3_282
*1606 FILLER_0_3_314
*1607 FILLER_0_3_322
*1608 FILLER_0_3_66
*1609 FILLER_0_3_72
*1610 FILLER_0_40_101
*1611 FILLER_0_40_107
*1612 FILLER_0_40_171
*1613 FILLER_0_40_177
*1614 FILLER_0_40_2
*1615 FILLER_0_40_241
*1616 FILLER_0_40_247
*1617 FILLER_0_40_311
*1618 FILLER_0_40_317
*1619 FILLER_0_40_321
*1620 FILLER_0_40_34
*1621 FILLER_0_40_37
*1622 FILLER_0_41_10
*1623 FILLER_0_41_115
*1624 FILLER_0_41_123
*1625 FILLER_0_41_126
*1626 FILLER_0_41_132
*1627 FILLER_0_41_139
*1628 FILLER_0_41_14
*1629 FILLER_0_41_142
*1630 FILLER_0_41_18
*1631 FILLER_0_41_2
*1632 FILLER_0_41_206
*1633 FILLER_0_41_212
*1634 FILLER_0_41_22
*1635 FILLER_0_41_228
*1636 FILLER_0_41_235
*1637 FILLER_0_41_26
*1638 FILLER_0_41_267
*1639 FILLER_0_41_275
*1640 FILLER_0_41_277
*1641 FILLER_0_41_282
*1642 FILLER_0_41_286
*1643 FILLER_0_41_288
*1644 FILLER_0_41_291
*1645 FILLER_0_41_30
*1646 FILLER_0_41_301
*1647 FILLER_0_41_305
*1648 FILLER_0_41_309
*1649 FILLER_0_41_311
*1650 FILLER_0_41_314
*1651 FILLER_0_41_316
*1652 FILLER_0_41_34
*1653 FILLER_0_41_43
*1654 FILLER_0_41_47
*1655 FILLER_0_41_49
*1656 FILLER_0_41_52
*1657 FILLER_0_41_72
*1658 FILLER_0_41_79
*1659 FILLER_0_41_83
*1660 FILLER_0_42_104
*1661 FILLER_0_42_138