*SPEF "ieee 1481-1999"
*DESIGN "loopback"
*DATE "11:11:11 Fri 11 11, 1111"
*VENDOR "OpenRCX"
*PROGRAM "Parallel Extraction"
*VERSION "1.0"
*DESIGN_FLOW "NAME_SCOPE LOCAL" "PIN_CAP NONE"
*DIVIDER /
*DELIMITER :
*BUS_DELIMITER []
*T_UNIT 1 NS
*C_UNIT 1 PF
*R_UNIT 1 OHM
*L_UNIT 1 HENRY

*NAME_MAP
*1 clk
*2 in[0]
*3 in[10]
*4 in[11]
*5 in[12]
*6 in[13]
*7 in[14]
*8 in[15]
*9 in[16]
*10 in[17]
*11 in[18]
*12 in[1]
*13 in[2]
*14 in[3]
*15 in[4]
*16 in[5]
*17 in[6]
*18 in[7]
*19 in[8]
*20 in[9]
*21 out[0]
*22 out[10]
*23 out[11]
*24 out[1]
*25 out[2]
*26 out[3]
*27 out[4]
*28 out[5]
*29 out[6]
*30 out[7]
*31 out[8]
*32 out[9]
*33 rst_n
*36 _00_
*37 _01_
*38 _02_
*39 _03_
*40 _04_
*41 _05_
*42 _06_
*43 _07_
*44 _08_
*45 _09_
*46 _10_
*47 _11_
*48 _12_
*49 _13_
*50 _14_
*51 _15_
*52 net1
*53 net10
*54 net11
*55 net12
*56 net13
*57 net14
*58 net15
*59 net16
*60 net17
*61 net18
*62 net19
*63 net2
*64 net20
*65 net21
*66 net22
*67 net23
*68 net24
*69 net25
*70 net26
*71 net27
*72 net28
*73 net29
*74 net3
*75 net30
*76 net31
*77 net32
*78 net4
*79 net5
*80 net6
*81 net7
*82 net8
*83 net9
*84 ANTENNA__43__I
*85 ANTENNA_input10_I
*86 ANTENNA_input11_I
*87 ANTENNA_input12_I
*88 ANTENNA_input13_I
*89 ANTENNA_input14_I
*90 ANTENNA_input15_I
*91 ANTENNA_input16_I
*92 ANTENNA_input17_I
*93 ANTENNA_input18_I
*94 ANTENNA_input19_I
*95 ANTENNA_input1_I
*96 ANTENNA_input20_I
*97 ANTENNA_input2_I
*98 ANTENNA_input3_I
*99 ANTENNA_input4_I
*100 ANTENNA_input5_I
*101 ANTENNA_input6_I
*102 ANTENNA_input7_I
*103 ANTENNA_input8_I
*104 ANTENNA_input9_I
*105 FILLER_0_0_101
*106 FILLER_0_0_104
*107 FILLER_0_0_112
*108 FILLER_0_0_12
*109 FILLER_0_0_16
*110 FILLER_0_0_32
*111 FILLER_0_0_36
*112 FILLER_0_0_44
*113 FILLER_0_0_46
*114 FILLER_0_0_67
*115 FILLER_0_0_70
*116 FILLER_0_0_72
*117 FILLER_0_0_8
*118 FILLER_0_0_99
*119 FILLER_0_10_115
*120 FILLER_0_10_2
*121 FILLER_0_10_34
*122 FILLER_0_10_37
*123 FILLER_0_10_45
*124 FILLER_0_10_49
*125 FILLER_0_10_52
*126 FILLER_0_11_2
*127 FILLER_0_11_36
*128 FILLER_0_11_46
*129 FILLER_0_1_102
*130 FILLER_0_1_104
*131 FILLER_0_1_107
*132 FILLER_0_1_109
*133 FILLER_0_1_14
*134 FILLER_0_1_18
*135 FILLER_0_1_34
*136 FILLER_0_1_42
*137 FILLER_0_1_51
*138 FILLER_0_1_61
*139 FILLER_0_1_69
*140 FILLER_0_1_98
*141 FILLER_0_2_113
*142 FILLER_0_2_115
*143 FILLER_0_2_14
*144 FILLER_0_2_18
*145 FILLER_0_2_22
*146 FILLER_0_2_30
*147 FILLER_0_2_34
*148 FILLER_0_2_37
*149 FILLER_0_2_45
*150 FILLER_0_2_49
*151 FILLER_0_2_51
*152 FILLER_0_2_60
*153 FILLER_0_2_92
*154 FILLER_0_2_96
*155 FILLER_0_2_98
*156 FILLER_0_3_37
*157 FILLER_0_3_45
*158 FILLER_0_3_72
*159 FILLER_0_3_74
*160 FILLER_0_3_83
*161 FILLER_0_4_10
*162 FILLER_0_4_113
*163 FILLER_0_4_115
*164 FILLER_0_4_34
*165 FILLER_0_4_49
*166 FILLER_0_4_8
*167 FILLER_0_5_17
*168 FILLER_0_5_2
*169 FILLER_0_5_21
*170 FILLER_0_5_4
*171 FILLER_0_5_52
*172 FILLER_0_5_54
*173 FILLER_0_5_67
*174 FILLER_0_5_69
*175 FILLER_0_5_72
*176 FILLER_0_5_74
*177 FILLER_0_5_87
*178 FILLER_0_5_89
*179 FILLER_0_6_115
*180 FILLER_0_6_14
*181 FILLER_0_6_18
*182 FILLER_0_6_22
*183 FILLER_0_6_30
*184 FILLER_0_6_34
*185 FILLER_0_6_37
*186 FILLER_0_6_53
*187 FILLER_0_6_55
*188 FILLER_0_7_12
*189 FILLER_0_7_44
*190 FILLER_0_7_60
*191 FILLER_0_7_8
*192 FILLER_0_8_115
*193 FILLER_0_8_12
*194 FILLER_0_8_28
*195 FILLER_0_8_32
*196 FILLER_0_8_34
*197 FILLER_0_8_37
*198 FILLER_0_8_53
*199 FILLER_0_8_55
*200 FILLER_0_8_8
*201 FILLER_0_9_2
*202 FILLER_0_9_34
*203 FILLER_0_9_50
*204 FILLER_0_9_60
*205 PHY_EDGE_ROW_0_Left_12
*206 PHY_EDGE_ROW_0_Right_0
*207 PHY_EDGE_ROW_10_Left_22
*208 PHY_EDGE_ROW_10_Right_10
*209 PHY_EDGE_ROW_11_Left_23
*210 PHY_EDGE_ROW_11_Right_11
*211 PHY_EDGE_ROW_1_Left_13
*212 PHY_EDGE_ROW_1_Right_1
*213 PHY_EDGE_ROW_2_Left_14
*214 PHY_EDGE_ROW_2_Right_2
*215 PHY_EDGE_ROW_3_Left_15
*216 PHY_EDGE_ROW_3_Right_3
*217 PHY_EDGE_ROW_4_Left_16
*218 PHY_EDGE_ROW_4_Right_4
*219 PHY_EDGE_ROW_5_Left_17
*220 PHY_EDGE_ROW_5_Right_5
*221 PHY_EDGE_ROW_6_Left_18
*222 PHY_EDGE_ROW_6_Right_6
*223 PHY_EDGE_ROW_7_Left_19
*224 PHY_EDGE_ROW_7_Right_7
*225 PHY_EDGE_ROW_8_Left_20
*226 PHY_EDGE_ROW_8_Right_8
*227 PHY_EDGE_ROW_9_Left_21
*228 PHY_EDGE_ROW_9_Right_9
*229 TAP_TAPCELL_ROW_0_24
*230 TAP_TAPCELL_ROW_0_25
*231 TAP_TAPCELL_ROW_0_26
*232 TAP_TAPCELL_ROW_10_40
*233 TAP_TAPCELL_ROW_10_41
*234 TAP_TAPCELL_ROW_11_42
*235 TAP_TAPCELL_ROW_11_43
*236 TAP_TAPCELL_ROW_11_44
*237 TAP_TAPCELL_ROW_1_27
*238 TAP_TAPCELL_ROW_2_28
*239 TAP_TAPCELL_ROW_2_29
*240 TAP_TAPCELL_ROW_3_30
*241 TAP_TAPCELL_ROW_4_31
*242 TAP_TAPCELL_ROW_4_32
*243 TAP_TAPCELL_ROW_5_33
*244 TAP_TAPCELL_ROW_6_34
*245 TAP_TAPCELL_ROW_6_35
*246 TAP_TAPCELL_ROW_7_36
*247 TAP_TAPCELL_ROW_8_37
*248 TAP_TAPCELL_ROW_8_38
*249 TAP_TAPCELL_ROW_9_39
*250 _16_
*251 _17_
*252 _18_
*253 _19_
*254 _20_
*255 _21_
*256 _22_
*257 _23_
*258 _24_
*259 _25_
*260 _26_
*261 _27_
*262 _28_
*263 _29_
*264 _30_
*265 _31_
*266 _32_
*267 _33_
*268 _34_
*269 _35_
*270 _36_
*271 _37_
*272 _38_
*273 _39_
*274 _40_
*275 _41_
*276 _42_
*277 _43_
*278 input1
*279 input10
*280 input11
*281 input12
*282 input13
*283 input14
*284 input15
*285 input16
*286 input17
*287 input18
*288 input19
*289 input2
*290 input20
*291 input3
*292 input4
*293 input5
*294 input6
*295 input7
*296 input8
*297 input9
*298 output21
*299 output22
*300 output23
*301 output24
*302 output25
*303 output26
*304 output27
*305 output28
*306 output29
*307 output30
*308 output31
*309 output32

*PORTS
clk I
in[0] I
in[10] I
in[11] I
in[12] I
in[13] I
in[14] I
in[15] I
in[16] I
in[17] I
in[18] I
in[1] I
in[2] I
in[3] I
in[4] I
in[5] I
in[6] I
in[7] I
in[8] I
in[9] I
out[0] O
out[10] O
out[11] O
out[1] O
out[2] O
out[3] O
out[4] O
out[5] O
out[6] O
out[7] O
out[8] O
out[9] O
rst_n I

*D_NET *1 0.00216152
*CONN
*P clk I
*I *277:I I *D gf180mcu_fd_sc_mcu7t5v0__buf_1
*I *84:I I *D gf180mcu_fd_sc_mcu7t5v0__antenna
*CAP
1 clk 0.000897492
2 *277:I 0.000126473
3 *84:I 0
4 *1:13 0.00102396
5 *277:I *298:I 8.21146e-06
6 *1:13 out[0] 0.00010538
7 *1:13 *3:9 0
*RES
1 clk *1:13 7.54 
2 *1:13 *84:I 4.5 
3 *1:13 *277:I 5.54 
*END

*D_NET *2 0.002919
*CONN
*P in[0] I
*I *95:I I *D gf180mcu_fd_sc_mcu7t5v0__antenna
*I *278:I I *D gf180mcu_fd_sc_mcu7t5v0__clkbuf_1
*CAP
1 in[0] 0.000195891
2 *95:I 0.000486739
3 *278:I 3.02168e-05
4 *2:7 0.000712847
5 *95:I *250:A2 0.000410048
6 *95:I *252:A2 5.40852e-05
7 *95:I *254:A2 0.000227971
8 *95:I *33:9 0.000570592
9 *278:I *250:A2 0.000113016
10 *2:7 *15:9 5.61882e-05
11 *2:7 *33:9 6.14036e-05
*RES
1 in[0] *2:7 6.632 
2 *2:7 *278:I 4.812 
3 *2:7 *95:I 17.868 
*END

*D_NET *3 0.00233096
*CONN
*P in[10] I
*I *289:I I *D gf180mcu_fd_sc_mcu7t5v0__clkbuf_1
*I *97:I I *D gf180mcu_fd_sc_mcu7t5v0__antenna
*CAP
1 in[10] 0.000585631
2 *289:I 0.000276347
3 *97:I 5.89897e-05
4 *3:9 0.000920968
5 *97:I out[0] 8.56628e-05
6 *97:I *298:I 0
7 *3:9 out[0] 0.000286057
8 *3:9 *259:A2 1.01702e-05
9 *3:9 *298:I 3.4596e-05
10 *3:9 *20:9 7.25346e-05
11 *1:13 *3:9 0
*RES
1 in[10] *3:9 6.084 
2 *3:9 *97:I 5.228 
3 *3:9 *289:I 15.06 
*END

*D_NET *4 0.00210624
*CONN
*P in[11] I
*I *98:I I *D gf180mcu_fd_sc_mcu7t5v0__antenna
*I *291:I I *D gf180mcu_fd_sc_mcu7t5v0__clkbuf_1
*CAP
1 in[11] 0.000664823
2 *98:I 0.0002083
3 *291:I 7.73314e-05
4 *4:9 0.000950455
5 *98:I *308:I 5.61634e-05
6 *98:I *5:9 0
7 *98:I *74:16 1.23682e-05
8 *291:I *74:16 3.3698e-05
9 *4:9 *263:A2 0
10 *4:9 *276:I 0
11 *4:9 *308:I 4.26345e-05
12 *4:9 *5:9 4.07775e-05
13 *4:9 *74:16 1.96905e-05
*RES
1 in[11] *4:9 9.024 
2 *4:9 *291:I 5.332 
3 *4:9 *98:I 6.164 
*END

*D_NET *5 0.00225631
*CONN
*P in[12] I
*I *99:I I *D gf180mcu_fd_sc_mcu7t5v0__antenna
*I *292:I I *D gf180mcu_fd_sc_mcu7t5v0__clkbuf_1
*CAP
1 in[12] 0.000682716
2 *99:I 0.000252784
3 *292:I 0
4 *5:9 0.0009355
5 *5:9 out[3] 4.37124e-05
6 *5:9 *270:I 0.000295347
7 *5:9 *308:I 5.47431e-06
8 *98:I *5:9 0
9 *4:9 *5:9 4.07775e-05
*RES
1 in[12] *5:9 9.856 
2 *5:9 *292:I 4.5 
3 *5:9 *99:I 6.372 
*END

*D_NET *6 0.00433186
*CONN
*P in[13] I
*I *293:I I *D gf180mcu_fd_sc_mcu7t5v0__clkbuf_1
*I *100:I I *D gf180mcu_fd_sc_mcu7t5v0__antenna
*CAP
1 in[13] 0.000733953
2 *293:I 0
3 *100:I 0.000272536
4 *6:5 0.00100649
5 *100:I *101:I 0.00086847
6 *100:I *104:I 8.80861e-05
7 *100:I *273:A1 0.000201729
8 *100:I *275:A1 3.38251e-05
9 *100:I *297:I 3.65102e-05
10 *100:I *10:9 0.00045326
11 *100:I *81:10 0.000497696
12 *6:5 *7:5 0.000131657
13 *6:5 *79:12 7.65111e-06
*RES
1 in[13] *6:5 5.876 
2 *6:5 *100:I 18.492 
3 *6:5 *293:I 4.5 
*END

*D_NET *7 0.00364478
*CONN
*P in[14] I
*I *294:I I *D gf180mcu_fd_sc_mcu7t5v0__clkbuf_1
*I *101:I I *D gf180mcu_fd_sc_mcu7t5v0__antenna
*CAP
1 in[14] 0.000691211
2 *294:I 0
3 *101:I 0.000311617
4 *7:5 0.00100283
5 *101:I *104:I 0.000121401
6 *101:I *273:A1 0.0005055
7 *7:5 *267:A2 1.07369e-05
8 *7:5 *275:A1 1.36398e-06
9 *100:I *101:I 0.00086847
10 *6:5 *7:5 0.000131657
*RES
1 in[14] *7:5 5.668 
2 *7:5 *101:I 17.14 
3 *7:5 *294:I 4.5 
*END

*D_NET *8 0.00509773
*CONN
*P in[15] I
*I *295:I I *D gf180mcu_fd_sc_mcu7t5v0__clkbuf_1
*I *102:I I *D gf180mcu_fd_sc_mcu7t5v0__antenna
*CAP
1 in[15] 0.00213965
2 *295:I 0
3 *102:I 0.000191316
4 *8:9 0.00233096
5 *102:I *104:I 0
6 *102:I *81:10 0.000190584
7 *8:9 out[10] 0.000203418
8 *8:9 *275:A1 0
9 *8:9 *81:10 4.18042e-05
*RES
1 in[15] *8:9 23.376 
2 *8:9 *102:I 6.164 
3 *8:9 *295:I 4.5 
*END

*D_NET *9 0.00556312
*CONN
*P in[16] I
*I *296:I I *D gf180mcu_fd_sc_mcu7t5v0__clkbuf_1
*I *103:I I *D gf180mcu_fd_sc_mcu7t5v0__antenna
*CAP
1 in[16] 0.00106099
2 *296:I 6.00287e-05
3 *103:I 7.496e-05
4 *9:5 0.00119598
5 *103:I *85:I 0.000427051
6 *103:I *275:A2 4.33918e-05
7 *103:I *10:9 0
8 *296:I *267:A2 5.63044e-06
9 *296:I *271:A2 4.67771e-06
10 *296:I *275:A2 1.78817e-06
11 *296:I *276:I 1.36398e-06
12 *9:5 out[7] 5.44509e-05
13 *9:5 *85:I 0.000603096
14 *9:5 *270:I 8.54332e-05
15 *9:5 *274:I 0.000291811
16 *9:5 *275:A2 5.17658e-05
17 *9:5 *275:A3 7.6493e-05
18 *9:5 *10:9 5.63329e-05
19 *9:5 *11:9 0.00113919
20 *9:5 *77:10 4.83728e-05
21 *9:5 *77:12 0.000280307
*RES
1 in[16] *9:5 11.7 
2 *9:5 *103:I 10.144 
3 *9:5 *296:I 9.312 
*END

*D_NET *10 0.00786454
*CONN
*P in[17] I
*I *297:I I *D gf180mcu_fd_sc_mcu7t5v0__clkbuf_1
*I *104:I I *D gf180mcu_fd_sc_mcu7t5v0__antenna
*CAP
1 in[17] 0.0015107
2 *297:I 5.61358e-05
3 *104:I 0.000418659
4 *10:9 0.00198549
5 *297:I *275:A1 6.05838e-05
6 *10:9 out[9] 0.000104741
7 *10:9 *273:A1 6.02016e-05
8 *10:9 *275:A2 0.000100899
9 *10:9 *275:A3 0.000316347
10 *10:9 *77:10 0.000346468
11 *10:9 *77:12 0.00214873
12 *100:I *104:I 8.80861e-05
13 *100:I *297:I 3.65102e-05
14 *100:I *10:9 0.00045326
15 *101:I *104:I 0.000121401
16 *102:I *104:I 0
17 *103:I *10:9 0
18 *9:5 *10:9 5.63329e-05
*RES
1 in[17] *10:9 14.82 
2 *10:9 *104:I 12.12 
3 *10:9 *297:I 9.52 
*END

*D_NET *11 0.00637326
*CONN
*P in[18] I
*I *279:I I *D gf180mcu_fd_sc_mcu7t5v0__clkbuf_1
*I *85:I I *D gf180mcu_fd_sc_mcu7t5v0__antenna
*CAP
1 in[18] 0.00126964
2 *279:I 0
3 *85:I 0.000229752
4 *11:9 0.00149939
5 *85:I *269:A1 0.000492376
6 *85:I *81:10 3.41997e-05
7 *11:9 out[10] 0.000361909
8 *11:9 out[11] 0
9 *11:9 out[9] 0
10 *11:9 *268:I 0
11 *11:9 *269:A1 0.000186429
12 *11:9 *270:I 2.30969e-05
13 *11:9 *299:I 0.000107117
14 *103:I *85:I 0.000427051
15 *9:5 *85:I 0.000603096
16 *9:5 *11:9 0.00113919
*RES
1 in[18] *11:9 16.096 
2 *11:9 *85:I 12.64 
3 *11:9 *279:I 9 
*END

*D_NET *12 0.00112354
*CONN
*P in[1] I
*I *86:I I *D gf180mcu_fd_sc_mcu7t5v0__antenna
*I *280:I I *D gf180mcu_fd_sc_mcu7t5v0__clkbuf_1
*CAP
1 in[1] 0.000181992
2 *86:I 0.000319512
3 *280:I 0
4 *12:5 0.000501505
5 *86:I *92:I 2.37436e-05
6 *86:I *18:5 3.75812e-05
7 *12:5 *18:5 5.92105e-05
*RES
1 in[1] *12:5 1.924 
2 *12:5 *280:I 9 
3 *12:5 *86:I 11.392 
*END

*D_NET *13 0.00118819
*CONN
*P in[2] I
*I *87:I I *D gf180mcu_fd_sc_mcu7t5v0__antenna
*I *281:I I *D gf180mcu_fd_sc_mcu7t5v0__clkbuf_1
*CAP
1 in[2] 0.000168492
2 *87:I 0.000237985
3 *281:I 5.7877e-05
4 *13:5 0.000464354
5 *87:I *90:I 3.27257e-05
6 *87:I *91:I 3.67555e-05
7 *87:I *254:A2 2.38773e-05
8 *87:I *16:5 1.18566e-06
9 *281:I *250:A2 4.63426e-05
10 *13:5 *91:I 3.20057e-06
11 *13:5 *16:5 5.61882e-05
12 *13:5 *17:5 5.92105e-05
*RES
1 in[2] *13:5 1.924 
2 *13:5 *281:I 9.52 
3 *13:5 *87:I 10.872 
*END

*D_NET *14 0.00216823
*CONN
*P in[3] I
*I *88:I I *D gf180mcu_fd_sc_mcu7t5v0__antenna
*I *282:I I *D gf180mcu_fd_sc_mcu7t5v0__clkbuf_1
*CAP
1 in[3] 0.000176754
2 *88:I 0.000482439
3 *282:I 9.97222e-05
4 *14:5 0.000758916
5 *88:I *89:I 6.89535e-05
6 *88:I *92:I 8.68938e-06
7 *88:I *93:I 2.37385e-05
8 *88:I *250:A1 0.000133482
9 *88:I *286:I 0.000194522
10 *88:I *18:5 3.13582e-05
11 *282:I *250:A1 1.57479e-05
12 *282:I *254:A1 6.06017e-05
13 *14:5 *89:I 4.17589e-06
14 *14:5 *18:5 5.92105e-05
15 *14:5 *19:9 4.99239e-05
*RES
1 in[3] *14:5 1.924 
2 *14:5 *282:I 9.728 
3 *14:5 *88:I 12.744 
*END

*D_NET *15 0.00355546
*CONN
*P in[4] I
*I *89:I I *D gf180mcu_fd_sc_mcu7t5v0__antenna
*I *283:I I *D gf180mcu_fd_sc_mcu7t5v0__clkbuf_1
*CAP
1 in[4] 0.000406901
2 *89:I 0.000207237
3 *283:I 3.70036e-05
4 *15:9 0.000651142
5 *89:I *93:I 0.000556387
6 *89:I *254:A1 0.00118602
7 *89:I *255:A1 2.44285e-05
8 *89:I *19:9 6.11661e-05
9 *283:I *254:A1 4.18042e-05
10 *15:9 *250:A2 0.000110334
11 *15:9 *252:A1 5.07976e-05
12 *15:9 *254:A1 4.18157e-05
13 *15:9 *19:9 5.11096e-05
14 *88:I *89:I 6.89535e-05
15 *2:7 *15:9 5.61882e-05
16 *14:5 *89:I 4.17589e-06
*RES
1 in[4] *15:9 8.192 
2 *15:9 *283:I 4.812 
3 *15:9 *89:I 17.14 
*END

*D_NET *16 0.00133079
*CONN
*P in[5] I
*I *90:I I *D gf180mcu_fd_sc_mcu7t5v0__antenna
*I *284:I I *D gf180mcu_fd_sc_mcu7t5v0__clkbuf_1
*CAP
1 in[5] 0.000222074
2 *90:I 0.000302344
3 *284:I 7.91823e-05
4 *16:5 0.0006036
5 *90:I *254:A2 2.01852e-05
6 *284:I *254:A2 1.33033e-05
7 *87:I *90:I 3.27257e-05
8 *87:I *16:5 1.18566e-06
9 *13:5 *16:5 5.61882e-05
*RES
1 in[5] *16:5 1.924 
2 *16:5 *284:I 9.52 
3 *16:5 *90:I 10.872 
*END

*D_NET *17 0.00172834
*CONN
*P in[6] I
*I *91:I I *D gf180mcu_fd_sc_mcu7t5v0__antenna
*I *285:I I *D gf180mcu_fd_sc_mcu7t5v0__clkbuf_1
*CAP
1 in[6] 0.000154874
2 *91:I 0.000558567
3 *285:I 0
4 *17:5 0.000713441
5 *91:I *254:A2 0.000128734
6 *91:I *33:9 1.4348e-05
7 *17:5 *33:9 5.92105e-05
8 *87:I *91:I 3.67555e-05
9 *13:5 *91:I 3.20057e-06
10 *13:5 *17:5 5.92105e-05
*RES
1 in[6] *17:5 1.924 
2 *17:5 *285:I 9 
3 *17:5 *91:I 12.64 
*END

*D_NET *18 0.00173764
*CONN
*P in[7] I
*I *92:I I *D gf180mcu_fd_sc_mcu7t5v0__antenna
*I *286:I I *D gf180mcu_fd_sc_mcu7t5v0__clkbuf_1
*CAP
1 in[7] 0.000294081
2 *92:I 0.000295178
3 *286:I 1.73363e-05
4 *18:5 0.000606595
5 *92:I *93:I 0
6 *92:I *255:A1 3.40522e-05
7 *286:I *250:A1 7.60808e-05
8 *86:I *92:I 2.37436e-05
9 *86:I *18:5 3.75812e-05
10 *88:I *92:I 8.68938e-06
11 *88:I *286:I 0.000194522
12 *88:I *18:5 3.13582e-05
13 *12:5 *18:5 5.92105e-05
14 *14:5 *18:5 5.92105e-05
*RES
1 in[7] *18:5 3.172 
2 *18:5 *286:I 9.52 
3 *18:5 *92:I 10.872 
*END

*D_NET *19 0.00238972
*CONN
*P in[8] I
*I *287:I I *D gf180mcu_fd_sc_mcu7t5v0__clkbuf_1
*I *93:I I *D gf180mcu_fd_sc_mcu7t5v0__antenna
*CAP
1 in[8] 0.000427545
2 *287:I 0
3 *93:I 0.000143956
4 *19:9 0.000571501
5 *93:I *255:A1 2.66703e-05
6 *19:9 *250:A1 7.89405e-05
7 *19:9 *250:A3 2.90392e-05
8 *19:9 *252:A1 3.50308e-05
9 *19:9 *254:A1 0.000334711
10 *88:I *93:I 2.37385e-05
11 *89:I *93:I 0.000556387
12 *89:I *19:9 6.11661e-05
13 *92:I *93:I 0
14 *14:5 *19:9 4.99239e-05
15 *15:9 *19:9 5.11096e-05
*RES
1 in[8] *19:9 8.4 
2 *19:9 *93:I 15.06 
3 *19:9 *287:I 4.5 
*END

*D_NET *20 0.0025415
*CONN
*P in[9] I
*I *94:I I *D gf180mcu_fd_sc_mcu7t5v0__antenna
*I *288:I I *D gf180mcu_fd_sc_mcu7t5v0__clkbuf_1
*CAP
1 in[9] 0.000578087
2 *94:I 0.000125095
3 *288:I 0.00011707
4 *20:9 0.000820252
5 *94:I *259:A2 5.85694e-05
6 *94:I *62:6 0.000500772
7 *288:I *263:A2 0
8 *20:9 out[2] 0.000144141
9 *20:9 *259:A2 1.19584e-05
10 *20:9 *62:6 0.000113016
11 *3:9 *20:9 7.25346e-05
*RES
1 in[9] *20:9 5.668 
2 *20:9 *288:I 14.228 
3 *20:9 *94:I 6.164 
*END

*D_NET *21 0.00142762
*CONN
*P out[0] O
*I *298:Z O *D gf180mcu_fd_sc_mcu7t5v0__buf_1
*CAP
1 out[0] 0.000475258
2 *298:Z 0.000475258
3 *97:I out[0] 8.56628e-05
4 *1:13 out[0] 0.00010538
5 *3:9 out[0] 0.000286057
*RES
1 *298:Z out[0] 9.856 
*END

*D_NET *22 0.00236766
*CONN
*P out[10] O
*I *299:Z O *D gf180mcu_fd_sc_mcu7t5v0__buf_8
*CAP
1 out[10] 0.000826754
2 *299:Z 0.000826754
3 out[10] out[11] 0.000148826
4 out[10] *273:A1 0
5 *8:9 out[10] 0.000203418
6 *11:9 out[10] 0.000361909
*RES
1 *299:Z out[10] 18.1 
*END

*D_NET *23 0.00307154
*CONN
*P out[11] O
*I *300:Z O *D gf180mcu_fd_sc_mcu7t5v0__buf_8
*CAP
1 out[11] 0.00107713
2 *300:Z 0.00107713
3 out[11] out[9] 0.000566076
4 out[11] *273:A1 0.000101023
5 out[11] *274:I 0.000101343
6 out[10] out[11] 0.000148826
7 *11:9 out[11] 0
*RES
1 *300:Z out[11] 18.204 
*END

*D_NET *24 0.00216928
*CONN
*P out[1] O
*I *301:Z O *D gf180mcu_fd_sc_mcu7t5v0__buf_8
*CAP
1 out[1] 0.000944711
2 *301:Z 0.000944711
3 out[1] out[2] 0.000268113
4 out[1] *263:A2 0
5 out[1] *301:I 1.17491e-05
*RES
1 *301:Z out[1] 21.352 
*END

*D_NET *25 0.0027515
*CONN
*P out[2] O
*I *302:Z O *D gf180mcu_fd_sc_mcu7t5v0__buf_8
*CAP
1 out[2] 0.00101588
2 *302:Z 0.00101588
3 out[2] *263:A2 0.000230085
4 out[2] *301:I 0
5 out[2] *62:6 7.73997e-05
6 out[1] out[2] 0.000268113
7 *20:9 out[2] 0.000144141
*RES
1 *302:Z out[2] 23.224 
*END

*D_NET *26 0.00184972
*CONN
*P out[3] O
*I *303:Z O *D gf180mcu_fd_sc_mcu7t5v0__buf_8
*CAP
1 out[3] 0.000685996
2 *303:Z 0.000685996
3 out[3] out[4] 6.2443e-05
4 out[3] *264:I 0.000284085
5 out[3] *276:I 1.57138e-05
6 out[3] *308:I 7.17761e-05
7 *5:9 out[3] 4.37124e-05
*RES
1 *303:Z out[3] 14.044 
*END

*D_NET *27 0.00282507
*CONN
*P out[4] O
*I *304:Z O *D gf180mcu_fd_sc_mcu7t5v0__buf_8
*CAP
1 out[4] 0.000743069
2 *304:Z 0.000743069
3 out[4] out[5] 6.20866e-05
4 out[4] *300:I 0.00073403
5 out[4] *308:I 0.000480369
6 out[3] out[4] 6.2443e-05
*RES
1 *304:Z out[4] 15.396 
*END

*D_NET *28 0.00251871
*CONN
*P out[5] O
*I *305:Z O *D gf180mcu_fd_sc_mcu7t5v0__buf_8
*CAP
1 out[5] 0.000625276
2 *305:Z 0.000625276
3 out[5] out[6] 5.88726e-05
4 out[5] *300:I 3.61986e-05
5 out[5] *308:I 0.000182208
6 out[5] *72:10 0.00092879
7 out[4] out[5] 6.20866e-05
*RES
1 *305:Z out[5] 14.356 
*END

*D_NET *29 0.00213246
*CONN
*P out[6] O
*I *306:Z O *D gf180mcu_fd_sc_mcu7t5v0__buf_8
*CAP
1 out[6] 0.000725745
2 *306:Z 0.000725745
3 out[6] out[8] 0.000144816
4 out[6] *264:I 5.17682e-05
5 out[6] *270:I 1.78817e-06
6 out[6] *272:I 0.000106306
7 out[6] *300:I 5.13977e-05
8 out[6] *308:I 3.58005e-05
9 out[6] *72:10 2.55592e-05
10 out[6] *75:12 0.000204659
11 out[5] out[6] 5.88726e-05
*RES
1 *306:Z out[6] 15.188 
*END

*D_NET *30 0.00196796
*CONN
*P out[7] O
*I *307:Z O *D gf180mcu_fd_sc_mcu7t5v0__buf_8
*CAP
1 out[7] 0.000816822
2 *307:Z 0.000816822
3 out[7] out[8] 8.00142e-06
4 out[7] *268:I 1.49279e-05
5 out[7] *270:I 0.000105902
6 out[7] *272:I 0.000151033
7 out[7] *308:I 0
8 *9:5 out[7] 5.44509e-05
*RES
1 *307:Z out[7] 14.668 
*END

*D_NET *31 0.00297715
*CONN
*P out[8] O
*I *308:Z O *D gf180mcu_fd_sc_mcu7t5v0__buf_8
*CAP
1 out[8] 0.000856538
2 *308:Z 0.000856538
3 out[8] *268:I 0.000317247
4 out[8] *274:I 0.000190584
5 out[8] *308:I 0
6 out[8] *75:12 0.000603423
7 out[8] *75:18 0
8 out[6] out[8] 0.000144816
9 out[7] out[8] 8.00142e-06
*RES
1 *308:Z out[8] 17.684 
*END

*D_NET *32 0.00248423
*CONN
*P out[9] O
*I *309:Z O *D gf180mcu_fd_sc_mcu7t5v0__buf_8
*CAP
1 out[9] 0.000757308
2 *309:Z 0.000757308
3 out[9] *273:A1 0.000298801
4 out[11] out[9] 0.000566076
5 *10:9 out[9] 0.000104741
6 *11:9 out[9] 0
*RES
1 *309:Z out[9] 15.604 
*END

*D_NET *33 0.00246101
*CONN
*P rst_n I
*I *96:I I *D gf180mcu_fd_sc_mcu7t5v0__antenna
*I *290:I I *D gf180mcu_fd_sc_mcu7t5v0__clkbuf_1
*CAP
1 rst_n 0.000425384
2 *96:I 0.000160952
3 *290:I 6.54042e-05
4 *33:9 0.00065174
5 *96:I *253:A2 0
6 *290:I *254:A2 2.13874e-05
7 *33:9 *251:A1 1.07369e-05
8 *33:9 *251:A2 7.63249e-05
9 *33:9 *254:A2 0.000343529
10 *91:I *33:9 1.4348e-05
11 *95:I *33:9 0.000570592
12 *2:7 *33:9 6.14036e-05
13 *17:5 *33:9 5.92105e-05
*RES
1 rst_n *33:9 9.232 
2 *33:9 *290:I 5.02 
3 *33:9 *96:I 5.644 
*END

*D_NET *36 0.000421772
*CONN
*I *253:A1 I *D gf180mcu_fd_sc_mcu7t5v0__xor3_1
*I *250:Z O *D gf180mcu_fd_sc_mcu7t5v0__xor3_1
*CAP
1 *253:A1 0.00020168
2 *250:Z 0.00020168
3 *253:A1 *253:A3 1.84122e-05
*RES
1 *250:Z *253:A1 10.456 
*END

*D_NET *37 0.000639143
*CONN
*I *253:A2 I *D gf180mcu_fd_sc_mcu7t5v0__xor3_1
*I *251:Z O *D gf180mcu_fd_sc_mcu7t5v0__xor2_1
*CAP
1 *253:A2 0.000277642
2 *251:Z 0.000277642
3 *253:A2 *250:A3 0
4 *253:A2 *251:A1 8.38595e-05
5 *96:I *253:A2 0
*RES
1 *251:Z *253:A2 11.288 
*END

*D_NET *38 0.0007438
*CONN
*I *253:A3 I *D gf180mcu_fd_sc_mcu7t5v0__xor3_1
*I *252:Z O *D gf180mcu_fd_sc_mcu7t5v0__xor2_1
*CAP
1 *253:A3 0.000112313
2 *252:Z 0.000112313
3 *253:A3 *252:A2 0.000500761
4 *253:A1 *253:A3 1.84122e-05
*RES
1 *252:Z *253:A3 10.352 
*END

*D_NET *39 0.00073807
*CONN
*I *255:A2 I *D gf180mcu_fd_sc_mcu7t5v0__xor3_1
*I *253:Z O *D gf180mcu_fd_sc_mcu7t5v0__xor3_1
*CAP
1 *255:A2 0.000113147
2 *253:Z 0.000113147
3 *255:A2 *252:A2 1.78817e-06
4 *255:A2 *255:A1 0.000509988
*RES
1 *253:Z *255:A2 10.352 
*END

*D_NET *40 0.000481529
*CONN
*I *255:A3 I *D gf180mcu_fd_sc_mcu7t5v0__xor3_1
*I *254:Z O *D gf180mcu_fd_sc_mcu7t5v0__xor2_1
*CAP
1 *255:A3 0.000188798
2 *254:Z 0.000188798
3 *255:A3 *254:A2 0
4 *255:A3 *256:I 0.000103933
*RES
1 *254:Z *255:A3 10.56 
*END

*D_NET *41 0.00153172
*CONN
*I *256:I I *D gf180mcu_fd_sc_mcu7t5v0__clkbuf_2
*I *255:Z O *D gf180mcu_fd_sc_mcu7t5v0__xor3_1
*CAP
1 *256:I 0.00053207
2 *255:Z 0.00053207
3 *256:I *254:A1 0
4 *256:I *258:I 0.000203364
5 *256:I *259:A2 1.09486e-05
6 *256:I *263:A1 0
7 *256:I *298:I 1.36858e-05
8 *256:I *302:I 0.000135646
9 *255:A3 *256:I 0.000103933
*RES
1 *255:Z *256:I 13.992 
*END

*D_NET *42 0.000682893
*CONN
*I *258:I I *D gf180mcu_fd_sc_mcu7t5v0__clkbuf_1
*I *257:Z O *D gf180mcu_fd_sc_mcu7t5v0__xor2_1
*CAP
1 *258:I 0.000239765
2 *257:Z 0.000239765
3 *258:I *257:A1 0
4 *258:I *263:A2 0
5 *256:I *258:I 0.000203364
*RES
1 *257:Z *258:I 11.288 
*END

*D_NET *43 0.000471036
*CONN
*I *260:I I *D gf180mcu_fd_sc_mcu7t5v0__clkbuf_2
*I *259:Z O *D gf180mcu_fd_sc_mcu7t5v0__xor3_1
*CAP
1 *260:I 0.000235518
2 *259:Z 0.000235518
*RES
1 *259:Z *260:I 10.768 
*END

*D_NET *44 0.000902918
*CONN
*I *262:I I *D gf180mcu_fd_sc_mcu7t5v0__clkbuf_1
*I *261:Z O *D gf180mcu_fd_sc_mcu7t5v0__xor2_1
*CAP
1 *262:I 0.000374143
2 *261:Z 0.000374143
3 *262:I *261:A2 7.9929e-05
4 *262:I *304:I 1.12327e-05
5 *262:I *70:6 6.34703e-05
*RES
1 *261:Z *262:I 11.6 
*END

*D_NET *45 0.00625441
*CONN
*I *264:I I *D gf180mcu_fd_sc_mcu7t5v0__clkbuf_2
*I *263:Z O *D gf180mcu_fd_sc_mcu7t5v0__xor3_1
*CAP
1 *264:I 0.000647619
2 *263:Z 0.000647619
3 *264:I *263:A1 0.00028351
4 *264:I *263:A3 0.000355275
5 *264:I *270:I 0.00100269
6 *264:I *276:I 0.00232641
7 *264:I *300:I 9.46917e-05
8 *264:I *306:I 0
9 *264:I *308:I 0.000560747
10 out[3] *264:I 0.000284085
11 out[6] *264:I 5.17682e-05
*RES
1 *263:Z *264:I 28.608 
*END

*D_NET *46 0.00065279
*CONN
*I *266:I I *D gf180mcu_fd_sc_mcu7t5v0__clkbuf_1
*I *265:Z O *D gf180mcu_fd_sc_mcu7t5v0__xor2_1
*CAP
1 *266:I 0.000269219
2 *265:Z 0.000269219
3 *266:I *267:A1 3.00141e-05
4 *266:I *267:A3 4.25344e-05
5 *266:I *276:I 4.18042e-05
*RES
1 *265:Z *266:I 19.976 
*END

*D_NET *47 0.0022643
*CONN
*I *268:I I *D gf180mcu_fd_sc_mcu7t5v0__clkbuf_2
*I *267:Z O *D gf180mcu_fd_sc_mcu7t5v0__xor3_1
*CAP
1 *268:I 0.000869441
2 *267:Z 0.000869441
3 *268:I *265:A1 0.000113016
4 *268:I *267:A3 2.17529e-05
5 *268:I *269:A1 0
6 *268:I *269:A2 2.38773e-05
7 *268:I *270:I 0
8 *268:I *75:18 0
9 *268:I *79:12 3.4596e-05
10 out[7] *268:I 1.49279e-05
11 out[8] *268:I 0.000317247
12 *11:9 *268:I 0
*RES
1 *267:Z *268:I 24.864 
*END

*D_NET *48 0.00825492
*CONN
*I *270:I I *D gf180mcu_fd_sc_mcu7t5v0__clkbuf_1
*I *269:Z O *D gf180mcu_fd_sc_mcu7t5v0__xor2_1
*CAP
1 *270:I 0.00127844
2 *269:Z 0.00127844
3 *270:I *272:I 0.00125188
4 *270:I *274:I 0.0011957
5 *270:I *276:I 0.000113027
6 *270:I *299:I 3.3698e-05
7 *270:I *300:I 0.000783416
8 *270:I *308:I 0.000154588
9 *270:I *75:12 0.00065147
10 out[6] *270:I 1.78817e-06
11 out[7] *270:I 0.000105902
12 *264:I *270:I 0.00100269
13 *268:I *270:I 0
14 *5:9 *270:I 0.000295347
15 *9:5 *270:I 8.54332e-05
16 *11:9 *270:I 2.30969e-05
*RES
1 *269:Z *270:I 33.912 
*END

*D_NET *49 0.0072381
*CONN
*I *272:I I *D gf180mcu_fd_sc_mcu7t5v0__clkbuf_2
*I *271:Z O *D gf180mcu_fd_sc_mcu7t5v0__xor3_1
*CAP
1 *272:I 0.00105602
2 *271:Z 0.00105602
3 *272:I *271:A3 0.000292328
4 *272:I *273:A2 3.4596e-05
5 *272:I *274:I 9.09131e-05
6 *272:I *300:I 2.89755e-05
7 *272:I *306:I 0
8 *272:I *308:I 0
9 *272:I *72:10 0.00207644
10 *272:I *75:12 5.44201e-05
11 *272:I *75:18 0.00103447
12 *272:I *77:10 4.67771e-06
13 out[6] *272:I 0.000106306
14 out[7] *272:I 0.000151033
15 *270:I *272:I 0.00125188
*RES
1 *271:Z *272:I 31.104 
*END

*D_NET *50 0.00391442
*CONN
*I *274:I I *D gf180mcu_fd_sc_mcu7t5v0__clkbuf_1
*I *273:Z O *D gf180mcu_fd_sc_mcu7t5v0__xor2_1
*CAP
1 *274:I 0.000926306
2 *273:Z 0.000926306
3 *274:I *269:A2 0
4 *274:I *273:A2 0.000103468
5 *274:I *299:I 8.79985e-05
6 *274:I *308:I 0
7 out[11] *274:I 0.000101343
8 out[8] *274:I 0.000190584
9 *270:I *274:I 0.0011957
10 *272:I *274:I 9.09131e-05
11 *9:5 *274:I 0.000291811
*RES
1 *273:Z *274:I 27.464 
*END

*D_NET *51 0.00826196
*CONN
*I *276:I I *D gf180mcu_fd_sc_mcu7t5v0__clkbuf_1
*I *275:Z O *D gf180mcu_fd_sc_mcu7t5v0__xor3_1
*CAP
1 *276:I 0.0020902
2 *275:Z 0.0020902
3 *276:I *257:A1 0
4 *276:I *257:A2 0
5 *276:I *261:A1 0
6 *276:I *263:A1 0.00069964
7 *276:I *263:A3 2.36218e-05
8 *276:I *267:A3 6.95257e-05
9 *276:I *269:A2 0
10 *276:I *271:A2 4.36663e-05
11 *276:I *271:A3 5.51177e-05
12 *276:I *275:A2 0.000245133
13 *276:I *302:I 0
14 *276:I *306:I 0.000286042
15 *276:I *308:I 2.14739e-05
16 *276:I *74:16 9.6017e-06
17 *276:I *79:12 0.000129413
18 out[3] *276:I 1.57138e-05
19 *264:I *276:I 0.00232641
20 *266:I *276:I 4.18042e-05
21 *270:I *276:I 0.000113027
22 *296:I *276:I 1.36398e-06
23 *4:9 *276:I 0
*RES
1 *275:Z *276:I 37.032 
*END

*D_NET *52 0.00100524
*CONN
*I *251:A1 I *D gf180mcu_fd_sc_mcu7t5v0__xor2_1
*I *278:Z O *D gf180mcu_fd_sc_mcu7t5v0__clkbuf_1
*CAP
1 *251:A1 0.000263432
2 *278:Z 0.000263432
3 *251:A1 *250:A2 4.49307e-05
4 *251:A1 *251:A2 0.000103788
5 *251:A1 *252:A2 0.000235061
6 *253:A2 *251:A1 8.38595e-05
7 *33:9 *251:A1 1.07369e-05
*RES
1 *278:Z *251:A1 11.912 
*END

*D_NET *53 0.00109695
*CONN
*I *275:A2 I *D gf180mcu_fd_sc_mcu7t5v0__xor3_1
*I *279:Z O *D gf180mcu_fd_sc_mcu7t5v0__clkbuf_1
*CAP
1 *275:A2 0.000305792
2 *279:Z 0.000305792
3 *275:A2 *267:A2 0
4 *275:A2 *275:A3 3.73779e-05
5 *275:A2 *79:12 5.01413e-06
6 *103:I *275:A2 4.33918e-05
7 *276:I *275:A2 0.000245133
8 *296:I *275:A2 1.78817e-06
9 *9:5 *275:A2 5.17658e-05
10 *10:9 *275:A2 0.000100899
*RES
1 *279:Z *275:A2 20.912 
*END

*D_NET *54 0.00218884
*CONN
*I *250:A1 I *D gf180mcu_fd_sc_mcu7t5v0__xor3_1
*I *280:Z O *D gf180mcu_fd_sc_mcu7t5v0__clkbuf_1
*CAP
1 *250:A1 0.000534643
2 *280:Z 0.000534643
3 *250:A1 *250:A2 3.42651e-05
4 *250:A1 *250:A3 4.56257e-05
5 *250:A1 *252:A1 0.000628524
6 *250:A1 *254:A1 0.000106889
7 *88:I *250:A1 0.000133482
8 *282:I *250:A1 1.57479e-05
9 *286:I *250:A1 7.60808e-05
10 *19:9 *250:A1 7.89405e-05
*RES
1 *280:Z *250:A1 14.2 
*END

*D_NET *55 0.00337101
*CONN
*I *250:A2 I *D gf180mcu_fd_sc_mcu7t5v0__xor3_1
*I *281:Z O *D gf180mcu_fd_sc_mcu7t5v0__clkbuf_1
*CAP
1 *250:A2 0.000547711
2 *281:Z 0.000547711
3 *250:A2 *252:A1 0.000122244
4 *250:A2 *252:A2 0.000765944
5 *250:A2 *254:A2 0.000628459
6 *95:I *250:A2 0.000410048
7 *250:A1 *250:A2 3.42651e-05
8 *251:A1 *250:A2 4.49307e-05
9 *278:I *250:A2 0.000113016
10 *281:I *250:A2 4.63426e-05
11 *15:9 *250:A2 0.000110334
*RES
1 *281:Z *250:A2 15.76 
*END

*D_NET *56 0.00483285
*CONN
*I *254:A1 I *D gf180mcu_fd_sc_mcu7t5v0__xor2_1
*I *282:Z O *D gf180mcu_fd_sc_mcu7t5v0__clkbuf_1
*CAP
1 *254:A1 0.00128818
2 *282:Z 0.00128818
3 *254:A1 *252:A1 0.000484653
4 *254:A1 *255:A1 0
5 *89:I *254:A1 0.00118602
6 *250:A1 *254:A1 0.000106889
7 *256:I *254:A1 0
8 *282:I *254:A1 6.06017e-05
9 *283:I *254:A1 4.18042e-05
10 *15:9 *254:A1 4.18157e-05
11 *19:9 *254:A1 0.000334711
*RES
1 *282:Z *254:A1 30.064 
*END

*D_NET *57 0.00304584
*CONN
*I *252:A1 I *D gf180mcu_fd_sc_mcu7t5v0__xor2_1
*I *283:Z O *D gf180mcu_fd_sc_mcu7t5v0__clkbuf_1
*CAP
1 *252:A1 0.00080992
2 *283:Z 0.00080992
3 *252:A1 *250:A3 0.000104752
4 *252:A1 *252:A2 0
5 *250:A1 *252:A1 0.000628524
6 *250:A2 *252:A1 0.000122244
7 *254:A1 *252:A1 0.000484653
8 *15:9 *252:A1 5.07976e-05
9 *19:9 *252:A1 3.50308e-05
*RES
1 *283:Z *252:A1 24.864 
*END

*D_NET *58 0.00491794
*CONN
*I *254:A2 I *D gf180mcu_fd_sc_mcu7t5v0__xor2_1
*I *284:Z O *D gf180mcu_fd_sc_mcu7t5v0__clkbuf_1
*CAP
1 *254:A2 0.00139698
2 *284:Z 0.00139698
3 *254:A2 *251:A2 0.00033778
4 *254:A2 *252:A2 0.000346997
5 *254:A2 *255:A1 3.17524e-05
6 *87:I *254:A2 2.38773e-05
7 *90:I *254:A2 2.01852e-05
8 *91:I *254:A2 0.000128734
9 *95:I *254:A2 0.000227971
10 *250:A2 *254:A2 0.000628459
11 *255:A3 *254:A2 0
12 *284:I *254:A2 1.33033e-05
13 *290:I *254:A2 2.13874e-05
14 *33:9 *254:A2 0.000343529
*RES
1 *284:Z *254:A2 30.48 
*END

*D_NET *59 0.0039475
*CONN
*I *252:A2 I *D gf180mcu_fd_sc_mcu7t5v0__xor2_1
*I *285:Z O *D gf180mcu_fd_sc_mcu7t5v0__clkbuf_1
*CAP
1 *252:A2 0.000984359
2 *285:Z 0.000984359
3 *252:A2 *251:A2 4.6157e-05
4 *252:A2 *255:A1 2.79913e-05
5 *95:I *252:A2 5.40852e-05
6 *250:A2 *252:A2 0.000765944
7 *251:A1 *252:A2 0.000235061
8 *252:A1 *252:A2 0
9 *253:A3 *252:A2 0.000500761
10 *254:A2 *252:A2 0.000346997
11 *255:A2 *252:A2 1.78817e-06
*RES
1 *285:Z *252:A2 26.84 
*END

*D_NET *60 0.00343431
*CONN
*I *255:A1 I *D gf180mcu_fd_sc_mcu7t5v0__xor3_1
*I *286:Z O *D gf180mcu_fd_sc_mcu7t5v0__clkbuf_1
*CAP
1 *255:A1 0.00138971
2 *286:Z 0.00138971
3 *89:I *255:A1 2.44285e-05
4 *92:I *255:A1 3.40522e-05
5 *93:I *255:A1 2.66703e-05
6 *252:A2 *255:A1 2.79913e-05
7 *254:A1 *255:A1 0
8 *254:A2 *255:A1 3.17524e-05
9 *255:A2 *255:A1 0.000509988
*RES
1 *286:Z *255:A1 28.192 
*END

*D_NET *61 0.00109037
*CONN
*I *250:A3 I *D gf180mcu_fd_sc_mcu7t5v0__xor3_1