*SPEF "ieee 1481-1999"
*DESIGN "loopback9"
*DATE "11:11:11 Fri 11 11, 1111"
*VENDOR "OpenRCX"
*PROGRAM "Parallel Extraction"
*VERSION "1.0"
*DESIGN_FLOW "NAME_SCOPE LOCAL" "PIN_CAP NONE"
*DIVIDER /
*DELIMITER :
*BUS_DELIMITER []
*T_UNIT 1 NS
*C_UNIT 1 PF
*R_UNIT 1 OHM
*L_UNIT 1 HENRY

*NAME_MAP
*1 clk
*2 in[0]
*3 in[10]
*4 in[11]
*5 in[12]
*6 in[13]
*7 in[14]
*8 in[15]
*9 in[16]
*10 in[17]
*11 in[1]
*12 in[2]
*13 in[3]
*14 in[4]
*15 in[5]
*16 in[6]
*17 in[7]
*18 in[8]
*19 in[9]
*20 out[0]
*21 out[10]
*22 out[11]
*23 out[1]
*24 out[2]
*25 out[3]
*26 out[4]
*27 out[5]
*28 out[6]
*29 out[7]
*30 out[8]
*31 out[9]
*32 rst_n
*35 _00_
*36 _01_
*37 _02_
*38 _03_
*39 _04_
*40 _05_
*41 _06_
*42 _07_
*43 _08_
*44 _09_
*45 _10_
*46 ANTENNA__11__A1
*47 ANTENNA__11__A2
*48 ANTENNA__12__A1
*49 ANTENNA__12__A2
*50 ANTENNA__13__A1
*51 ANTENNA__13__A2
*52 ANTENNA__15__A1
*53 ANTENNA__15__A2
*54 ANTENNA__16__A1
*55 ANTENNA__18__A1
*56 ANTENNA__19__A1
*57 ANTENNA__19__A2
*58 ANTENNA__21__A1
*59 ANTENNA__22__A1
*60 ANTENNA__22__A2
*61 ANTENNA__24__A1
*62 ANTENNA__25__A1
*63 ANTENNA__25__A2
*64 ANTENNA__27__A1
*65 ANTENNA__28__A1
*66 ANTENNA__28__A2
*67 ANTENNA__30__A1
*68 ANTENNA__31__A1
*69 ANTENNA__31__A2
*70 ANTENNA__33__I
*71 FILLER_0_0_104
*72 FILLER_0_0_138
*73 FILLER_0_0_172
*74 FILLER_0_0_2
*75 FILLER_0_0_206
*76 FILLER_0_0_240
*77 FILLER_0_0_274
*78 FILLER_0_0_308
*79 FILLER_0_0_324
*80 FILLER_0_0_328
*81 FILLER_0_0_330
*82 FILLER_0_0_36
*83 FILLER_0_0_70
*84 FILLER_0_10_101
*85 FILLER_0_10_107
*86 FILLER_0_10_171
*87 FILLER_0_10_177
*88 FILLER_0_10_2
*89 FILLER_0_10_241
*90 FILLER_0_10_247
*91 FILLER_0_10_311
*92 FILLER_0_10_317
*93 FILLER_0_10_325
*94 FILLER_0_10_329
*95 FILLER_0_10_34
*96 FILLER_0_10_37
*97 FILLER_0_11_136
*98 FILLER_0_11_142
*99 FILLER_0_11_2
*100 FILLER_0_11_206
*101 FILLER_0_11_212
*102 FILLER_0_11_276
*103 FILLER_0_11_282
*104 FILLER_0_11_314
*105 FILLER_0_11_330
*106 FILLER_0_11_66
*107 FILLER_0_11_72
*108 FILLER_0_12_101
*109 FILLER_0_12_107
*110 FILLER_0_12_171
*111 FILLER_0_12_177
*112 FILLER_0_12_2
*113 FILLER_0_12_241
*114 FILLER_0_12_247
*115 FILLER_0_12_311
*116 FILLER_0_12_317
*117 FILLER_0_12_325
*118 FILLER_0_12_329
*119 FILLER_0_12_34
*120 FILLER_0_12_37
*121 FILLER_0_13_104
*122 FILLER_0_13_106
*123 FILLER_0_13_109
*124 FILLER_0_13_113
*125 FILLER_0_13_129
*126 FILLER_0_13_137
*127 FILLER_0_13_139
*128 FILLER_0_13_142
*129 FILLER_0_13_2
*130 FILLER_0_13_206
*131 FILLER_0_13_212
*132 FILLER_0_13_222
*133 FILLER_0_13_254
*134 FILLER_0_13_270
*135 FILLER_0_13_278
*136 FILLER_0_13_282
*137 FILLER_0_13_314
*138 FILLER_0_13_330
*139 FILLER_0_13_66
*140 FILLER_0_13_72
*141 FILLER_0_14_107
*142 FILLER_0_14_121
*143 FILLER_0_14_131
*144 FILLER_0_14_147
*145 FILLER_0_14_151
*146 FILLER_0_14_167
*147 FILLER_0_14_177
*148 FILLER_0_14_193
*149 FILLER_0_14_2
*150 FILLER_0_14_218
*151 FILLER_0_14_222
*152 FILLER_0_14_235
*153 FILLER_0_14_239
*154 FILLER_0_14_259
*155 FILLER_0_14_263
*156 FILLER_0_14_295
*157 FILLER_0_14_311
*158 FILLER_0_14_317
*159 FILLER_0_14_325
*160 FILLER_0_14_329
*161 FILLER_0_14_34
*162 FILLER_0_14_37
*163 FILLER_0_14_69
*164 FILLER_0_14_85
*165 FILLER_0_14_89
*166 FILLER_0_15_142
*167 FILLER_0_15_169
*168 FILLER_0_15_171
*169 FILLER_0_15_195
*170 FILLER_0_15_197
*171 FILLER_0_15_2
*172 FILLER_0_15_212
*173 FILLER_0_15_216
*174 FILLER_0_15_220
*175 FILLER_0_15_267
*176 FILLER_0_15_271
*177 FILLER_0_15_275
*178 FILLER_0_15_279
*179 FILLER_0_15_282
*180 FILLER_0_15_314
*181 FILLER_0_15_330
*182 FILLER_0_15_66
*183 FILLER_0_15_72
*184 FILLER_0_15_88
*185 FILLER_0_15_92
*186 FILLER_0_16_101
*187 FILLER_0_16_119
*188 FILLER_0_16_123
*189 FILLER_0_16_139
*190 FILLER_0_16_143
*191 FILLER_0_16_163
*192 FILLER_0_16_167
*193 FILLER_0_16_189
*194 FILLER_0_16_193
*195 FILLER_0_16_195
*196 FILLER_0_16_2
*197 FILLER_0_16_202
*198 FILLER_0_16_206
*199 FILLER_0_16_214
*200 FILLER_0_16_218
*201 FILLER_0_16_226
*202 FILLER_0_16_242
*203 FILLER_0_16_244
*204 FILLER_0_16_253
*205 FILLER_0_16_257
*206 FILLER_0_16_267
*207 FILLER_0_16_299
*208 FILLER_0_16_317
*209 FILLER_0_16_325
*210 FILLER_0_16_329
*211 FILLER_0_16_34
*212 FILLER_0_16_37
*213 FILLER_0_16_69
*214 FILLER_0_16_85
*215 FILLER_0_16_93
*216 FILLER_0_16_97
*217 FILLER_0_17_136
*218 FILLER_0_17_142
*219 FILLER_0_17_2
*220 FILLER_0_17_206
*221 FILLER_0_17_212
*222 FILLER_0_17_276
*223 FILLER_0_17_282
*224 FILLER_0_17_314
*225 FILLER_0_17_330
*226 FILLER_0_17_66
*227 FILLER_0_17_72
*228 FILLER_0_18_101
*229 FILLER_0_18_107
*230 FILLER_0_18_171
*231 FILLER_0_18_177
*232 FILLER_0_18_2
*233 FILLER_0_18_241
*234 FILLER_0_18_247
*235 FILLER_0_18_311
*236 FILLER_0_18_317
*237 FILLER_0_18_325
*238 FILLER_0_18_329
*239 FILLER_0_18_34
*240 FILLER_0_18_37
*241 FILLER_0_19_136
*242 FILLER_0_19_142
*243 FILLER_0_19_2
*244 FILLER_0_19_206
*245 FILLER_0_19_212
*246 FILLER_0_19_276
*247 FILLER_0_19_282
*248 FILLER_0_19_314
*249 FILLER_0_19_330
*250 FILLER_0_19_66
*251 FILLER_0_19_72
*252 FILLER_0_1_136
*253 FILLER_0_1_142
*254 FILLER_0_1_2
*255 FILLER_0_1_206
*256 FILLER_0_1_212
*257 FILLER_0_1_276
*258 FILLER_0_1_282
*259 FILLER_0_1_314
*260 FILLER_0_1_330
*261 FILLER_0_1_66
*262 FILLER_0_1_72
*263 FILLER_0_20_101
*264 FILLER_0_20_107
*265 FILLER_0_20_171
*266 FILLER_0_20_177
*267 FILLER_0_20_2
*268 FILLER_0_20_241
*269 FILLER_0_20_247
*270 FILLER_0_20_311
*271 FILLER_0_20_317
*272 FILLER_0_20_325
*273 FILLER_0_20_329
*274 FILLER_0_20_34
*275 FILLER_0_20_37
*276 FILLER_0_21_136
*277 FILLER_0_21_142
*278 FILLER_0_21_2
*279 FILLER_0_21_206
*280 FILLER_0_21_212
*281 FILLER_0_21_276
*282 FILLER_0_21_282
*283 FILLER_0_21_314
*284 FILLER_0_21_330
*285 FILLER_0_21_66
*286 FILLER_0_21_72
*287 FILLER_0_22_101
*288 FILLER_0_22_107
*289 FILLER_0_22_171
*290 FILLER_0_22_177
*291 FILLER_0_22_2
*292 FILLER_0_22_241
*293 FILLER_0_22_247
*294 FILLER_0_22_311
*295 FILLER_0_22_317
*296 FILLER_0_22_325
*297 FILLER_0_22_329
*298 FILLER_0_22_34
*299 FILLER_0_22_37
*300 FILLER_0_23_136
*301 FILLER_0_23_142
*302 FILLER_0_23_2
*303 FILLER_0_23_206
*304 FILLER_0_23_212
*305 FILLER_0_23_276
*306 FILLER_0_23_282
*307 FILLER_0_23_314
*308 FILLER_0_23_330
*309 FILLER_0_23_66
*310 FILLER_0_23_72
*311 FILLER_0_24_101
*312 FILLER_0_24_107
*313 FILLER_0_24_171
*314 FILLER_0_24_177
*315 FILLER_0_24_2
*316 FILLER_0_24_241
*317 FILLER_0_24_247
*318 FILLER_0_24_311
*319 FILLER_0_24_317
*320 FILLER_0_24_325
*321 FILLER_0_24_329
*322 FILLER_0_24_34
*323 FILLER_0_24_37
*324 FILLER_0_25_136
*325 FILLER_0_25_142
*326 FILLER_0_25_2
*327 FILLER_0_25_206
*328 FILLER_0_25_212
*329 FILLER_0_25_276
*330 FILLER_0_25_282
*331 FILLER_0_25_314
*332 FILLER_0_25_330
*333 FILLER_0_25_66
*334 FILLER_0_25_72
*335 FILLER_0_26_101
*336 FILLER_0_26_107
*337 FILLER_0_26_171
*338 FILLER_0_26_177
*339 FILLER_0_26_2
*340 FILLER_0_26_241
*341 FILLER_0_26_247
*342 FILLER_0_26_311
*343 FILLER_0_26_317
*344 FILLER_0_26_325
*345 FILLER_0_26_329
*346 FILLER_0_26_34
*347 FILLER_0_26_37
*348 FILLER_0_27_104
*349 FILLER_0_27_128
*350 FILLER_0_27_136
*351 FILLER_0_27_142
*352 FILLER_0_27_2
*353 FILLER_0_27_206
*354 FILLER_0_27_212
*355 FILLER_0_27_276
*356 FILLER_0_27_282
*357 FILLER_0_27_314
*358 FILLER_0_27_330
*359 FILLER_0_27_66
*360 FILLER_0_27_72
*361 FILLER_0_28_101
*362 FILLER_0_28_107
*363 FILLER_0_28_171
*364 FILLER_0_28_177
*365 FILLER_0_28_2
*366 FILLER_0_28_241
*367 FILLER_0_28_247
*368 FILLER_0_28_311
*369 FILLER_0_28_317
*370 FILLER_0_28_325
*371 FILLER_0_28_329
*372 FILLER_0_28_34
*373 FILLER_0_28_37
*374 FILLER_0_29_136
*375 FILLER_0_29_142
*376 FILLER_0_29_2
*377 FILLER_0_29_206
*378 FILLER_0_29_212
*379 FILLER_0_29_276
*380 FILLER_0_29_282
*381 FILLER_0_29_314
*382 FILLER_0_29_330
*383 FILLER_0_29_66
*384 FILLER_0_29_72
*385 FILLER_0_2_101
*386 FILLER_0_2_107
*387 FILLER_0_2_171
*388 FILLER_0_2_177
*389 FILLER_0_2_2
*390 FILLER_0_2_241
*391 FILLER_0_2_247
*392 FILLER_0_2_311
*393 FILLER_0_2_317
*394 FILLER_0_2_325
*395 FILLER_0_2_329
*396 FILLER_0_2_34
*397 FILLER_0_2_37
*398 FILLER_0_30_101
*399 FILLER_0_30_107
*400 FILLER_0_30_171
*401 FILLER_0_30_177
*402 FILLER_0_30_2
*403 FILLER_0_30_241
*404 FILLER_0_30_247
*405 FILLER_0_30_311
*406 FILLER_0_30_317
*407 FILLER_0_30_325
*408 FILLER_0_30_329
*409 FILLER_0_30_34
*410 FILLER_0_30_37
*411 FILLER_0_31_104
*412 FILLER_0_31_138
*413 FILLER_0_31_172
*414 FILLER_0_31_2
*415 FILLER_0_31_206
*416 FILLER_0_31_240
*417 FILLER_0_31_274
*418 FILLER_0_31_308
*419 FILLER_0_31_324
*420 FILLER_0_31_328
*421 FILLER_0_31_330
*422 FILLER_0_31_36
*423 FILLER_0_31_70
*424 FILLER_0_3_136
*425 FILLER_0_3_142
*426 FILLER_0_3_2
*427 FILLER_0_3_206
*428 FILLER_0_3_212
*429 FILLER_0_3_276
*430 FILLER_0_3_282
*431 FILLER_0_3_314
*432 FILLER_0_3_330
*433 FILLER_0_3_66
*434 FILLER_0_3_72
*435 FILLER_0_4_101
*436 FILLER_0_4_107
*437 FILLER_0_4_171
*438 FILLER_0_4_177
*439 FILLER_0_4_2
*440 FILLER_0_4_241
*441 FILLER_0_4_247
*442 FILLER_0_4_311
*443 FILLER_0_4_317
*444 FILLER_0_4_325
*445 FILLER_0_4_329
*446 FILLER_0_4_34
*447 FILLER_0_4_37
*448 FILLER_0_5_136
*449 FILLER_0_5_142
*450 FILLER_0_5_2
*451 FILLER_0_5_206
*452 FILLER_0_5_212
*453 FILLER_0_5_276
*454 FILLER_0_5_282
*455 FILLER_0_5_314
*456 FILLER_0_5_330
*457 FILLER_0_5_66
*458 FILLER_0_5_72
*459 FILLER_0_6_101
*460 FILLER_0_6_107
*461 FILLER_0_6_171
*462 FILLER_0_6_177
*463 FILLER_0_6_2
*464 FILLER_0_6_241
*465 FILLER_0_6_247
*466 FILLER_0_6_311
*467 FILLER_0_6_317
*468 FILLER_0_6_325
*469 FILLER_0_6_329
*470 FILLER_0_6_34
*471 FILLER_0_6_37
*472 FILLER_0_7_136
*473 FILLER_0_7_142
*474 FILLER_0_7_2
*475 FILLER_0_7_206
*476 FILLER_0_7_212
*477 FILLER_0_7_276
*478 FILLER_0_7_282
*479 FILLER_0_7_314
*480 FILLER_0_7_330
*481 FILLER_0_7_66
*482 FILLER_0_7_72
*483 FILLER_0_8_101
*484 FILLER_0_8_107
*485 FILLER_0_8_171
*486 FILLER_0_8_177
*487 FILLER_0_8_2
*488 FILLER_0_8_241
*489 FILLER_0_8_247
*490 FILLER_0_8_311
*491 FILLER_0_8_317
*492 FILLER_0_8_325
*493 FILLER_0_8_329
*494 FILLER_0_8_34
*495 FILLER_0_8_37
*496 FILLER_0_9_136
*497 FILLER_0_9_142
*498 FILLER_0_9_2
*499 FILLER_0_9_206
*500 FILLER_0_9_212
*501 FILLER_0_9_276
*502 FILLER_0_9_282
*503 FILLER_0_9_314
*504 FILLER_0_9_330
*505 FILLER_0_9_66
*506 FILLER_0_9_72
*507 PHY_EDGE_ROW_0_Left_32
*508 PHY_EDGE_ROW_0_Right_0
*509 PHY_EDGE_ROW_10_Left_42
*510 PHY_EDGE_ROW_10_Right_10
*511 PHY_EDGE_ROW_11_Left_43
*512 PHY_EDGE_ROW_11_Right_11
*513 PHY_EDGE_ROW_12_Left_44
*514 PHY_EDGE_ROW_12_Right_12
*515 PHY_EDGE_ROW_13_Left_45
*516 PHY_EDGE_ROW_13_Right_13
*517 PHY_EDGE_ROW_14_Left_46
*518 PHY_EDGE_ROW_14_Right_14
*519 PHY_EDGE_ROW_15_Left_47
*520 PHY_EDGE_ROW_15_Right_15
*521 PHY_EDGE_ROW_16_Left_48
*522 PHY_EDGE_ROW_16_Right_16
*523 PHY_EDGE_ROW_17_Left_49
*524 PHY_EDGE_ROW_17_Right_17
*525 PHY_EDGE_ROW_18_Left_50
*526 PHY_EDGE_ROW_18_Right_18
*527 PHY_EDGE_ROW_19_Left_51
*528 PHY_EDGE_ROW_19_Right_19
*529 PHY_EDGE_ROW_1_Left_33
*530 PHY_EDGE_ROW_1_Right_1
*531 PHY_EDGE_ROW_20_Left_52
*532 PHY_EDGE_ROW_20_Right_20
*533 PHY_EDGE_ROW_21_Left_53
*534 PHY_EDGE_ROW_21_Right_21
*535 PHY_EDGE_ROW_22_Left_54
*536 PHY_EDGE_ROW_22_Right_22
*537 PHY_EDGE_ROW_23_Left_55
*538 PHY_EDGE_ROW_23_Right_23
*539 PHY_EDGE_ROW_24_Left_56
*540 PHY_EDGE_ROW_24_Right_24
*541 PHY_EDGE_ROW_25_Left_57
*542 PHY_EDGE_ROW_25_Right_25
*543 PHY_EDGE_ROW_26_Left_58
*544 PHY_EDGE_ROW_26_Right_26
*545 PHY_EDGE_ROW_27_Left_59
*546 PHY_EDGE_ROW_27_Right_27
*547 PHY_EDGE_ROW_28_Left_60
*548 PHY_EDGE_ROW_28_Right_28
*549 PHY_EDGE_ROW_29_Left_61
*550 PHY_EDGE_ROW_29_Right_29
*551 PHY_EDGE_ROW_2_Left_34
*552 PHY_EDGE_ROW_2_Right_2
*553 PHY_EDGE_ROW_30_Left_62
*554 PHY_EDGE_ROW_30_Right_30
*555 PHY_EDGE_ROW_31_Left_63
*556 PHY_EDGE_ROW_31_Right_31
*557 PHY_EDGE_ROW_3_Left_35
*558 PHY_EDGE_ROW_3_Right_3
*559 PHY_EDGE_ROW_4_Left_36
*560 PHY_EDGE_ROW_4_Right_4
*561 PHY_EDGE_ROW_5_Left_37
*562 PHY_EDGE_ROW_5_Right_5
*563 PHY_EDGE_ROW_6_Left_38
*564 PHY_EDGE_ROW_6_Right_6
*565 PHY_EDGE_ROW_7_Left_39
*566 PHY_EDGE_ROW_7_Right_7
*567 PHY_EDGE_ROW_8_Left_40
*568 PHY_EDGE_ROW_8_Right_8
*569 PHY_EDGE_ROW_9_Left_41
*570 PHY_EDGE_ROW_9_Right_9
*571 TAP_TAPCELL_ROW_0_64
*572 TAP_TAPCELL_ROW_0_65
*573 TAP_TAPCELL_ROW_0_66
*574 TAP_TAPCELL_ROW_0_67
*575 TAP_TAPCELL_ROW_0_68
*576 TAP_TAPCELL_ROW_0_69
*577 TAP_TAPCELL_ROW_0_70
*578 TAP_TAPCELL_ROW_0_71
*579 TAP_TAPCELL_ROW_0_72
*580 TAP_TAPCELL_ROW_10_113
*581 TAP_TAPCELL_ROW_10_114
*582 TAP_TAPCELL_ROW_10_115
*583 TAP_TAPCELL_ROW_10_116
*584 TAP_TAPCELL_ROW_10_117
*585 TAP_TAPCELL_ROW_11_118
*586 TAP_TAPCELL_ROW_11_119
*587 TAP_TAPCELL_ROW_11_120
*588 TAP_TAPCELL_ROW_11_121
*589 TAP_TAPCELL_ROW_12_122
*590 TAP_TAPCELL_ROW_12_123
*591 TAP_TAPCELL_ROW_12_124
*592 TAP_TAPCELL_ROW_12_125
*593 TAP_TAPCELL_ROW_12_126
*594 TAP_TAPCELL_ROW_13_127
*595 TAP_TAPCELL_ROW_13_128
*596 TAP_TAPCELL_ROW_13_129
*597 TAP_TAPCELL_ROW_13_130
*598 TAP_TAPCELL_ROW_14_131
*599 TAP_TAPCELL_ROW_14_132
*600 TAP_TAPCELL_ROW_14_133
*601 TAP_TAPCELL_ROW_14_134
*602 TAP_TAPCELL_ROW_14_135
*603 TAP_TAPCELL_ROW_15_136
*604 TAP_TAPCELL_ROW_15_137
*605 TAP_TAPCELL_ROW_15_138
*606 TAP_TAPCELL_ROW_15_139
*607 TAP_TAPCELL_ROW_16_140
*608 TAP_TAPCELL_ROW_16_141
*609 TAP_TAPCELL_ROW_16_142
*610 TAP_TAPCELL_ROW_16_143
*611 TAP_TAPCELL_ROW_16_144
*612 TAP_TAPCELL_ROW_17_145
*613 TAP_TAPCELL_ROW_17_146
*614 TAP_TAPCELL_ROW_17_147
*615 TAP_TAPCELL_ROW_17_148
*616 TAP_TAPCELL_ROW_18_149
*617 TAP_TAPCELL_ROW_18_150
*618 TAP_TAPCELL_ROW_18_151
*619 TAP_TAPCELL_ROW_18_152
*620 TAP_TAPCELL_ROW_18_153
*621 TAP_TAPCELL_ROW_19_154
*622 TAP_TAPCELL_ROW_19_155
*623 TAP_TAPCELL_ROW_19_156
*624 TAP_TAPCELL_ROW_19_157
*625 TAP_TAPCELL_ROW_1_73
*626 TAP_TAPCELL_ROW_1_74
*627 TAP_TAPCELL_ROW_1_75
*628 TAP_TAPCELL_ROW_1_76
*629 TAP_TAPCELL_ROW_20_158
*630 TAP_TAPCELL_ROW_20_159
*631 TAP_TAPCELL_ROW_20_160
*632 TAP_TAPCELL_ROW_20_161
*633 TAP_TAPCELL_ROW_20_162
*634 TAP_TAPCELL_ROW_21_163
*635 TAP_TAPCELL_ROW_21_164
*636 TAP_TAPCELL_ROW_21_165
*637 TAP_TAPCELL_ROW_21_166
*638 TAP_TAPCELL_ROW_22_167
*639 TAP_TAPCELL_ROW_22_168
*640 TAP_TAPCELL_ROW_22_169
*641 TAP_TAPCELL_ROW_22_170
*642 TAP_TAPCELL_ROW_22_171
*643 TAP_TAPCELL_ROW_23_172
*644 TAP_TAPCELL_ROW_23_173
*645 TAP_TAPCELL_ROW_23_174
*646 TAP_TAPCELL_ROW_23_175
*647 TAP_TAPCELL_ROW_24_176
*648 TAP_TAPCELL_ROW_24_177
*649 TAP_TAPCELL_ROW_24_178
*650 TAP_TAPCELL_ROW_24_179
*651 TAP_TAPCELL_ROW_24_180
*652 TAP_TAPCELL_ROW_25_181
*653 TAP_TAPCELL_ROW_25_182
*654 TAP_TAPCELL_ROW_25_183
*655 TAP_TAPCELL_ROW_25_184
*656 TAP_TAPCELL_ROW_26_185
*657 TAP_TAPCELL_ROW_26_186
*658 TAP_TAPCELL_ROW_26_187
*659 TAP_TAPCELL_ROW_26_188
*660 TAP_TAPCELL_ROW_26_189
*661 TAP_TAPCELL_ROW_27_190
*662 TAP_TAPCELL_ROW_27_191
*663 TAP_TAPCELL_ROW_27_192
*664 TAP_TAPCELL_ROW_27_193
*665 TAP_TAPCELL_ROW_28_194
*666 TAP_TAPCELL_ROW_28_195
*667 TAP_TAPCELL_ROW_28_196
*668 TAP_TAPCELL_ROW_28_197
*669 TAP_TAPCELL_ROW_28_198
*670 TAP_TAPCELL_ROW_29_199
*671 TAP_TAPCELL_ROW_29_200
*672 TAP_TAPCELL_ROW_29_201
*673 TAP_TAPCELL_ROW_29_202
*674 TAP_TAPCELL_ROW_2_77
*675 TAP_TAPCELL_ROW_2_78
*676 TAP_TAPCELL_ROW_2_79
*677 TAP_TAPCELL_ROW_2_80
*678 TAP_TAPCELL_ROW_2_81
*679 TAP_TAPCELL_ROW_30_203
*680 TAP_TAPCELL_ROW_30_204
*681 TAP_TAPCELL_ROW_30_205
*682 TAP_TAPCELL_ROW_30_206
*683 TAP_TAPCELL_ROW_30_207
*684 TAP_TAPCELL_ROW_31_208
*685 TAP_TAPCELL_ROW_31_209
*686 TAP_TAPCELL_ROW_31_210
*687 TAP_TAPCELL_ROW_31_211
*688 TAP_TAPCELL_ROW_31_212
*689 TAP_TAPCELL_ROW_31_213
*690 TAP_TAPCELL_ROW_31_214
*691 TAP_TAPCELL_ROW_31_215
*692 TAP_TAPCELL_ROW_31_216
*693 TAP_TAPCELL_ROW_3_82
*694 TAP_TAPCELL_ROW_3_83
*695 TAP_TAPCELL_ROW_3_84
*696 TAP_TAPCELL_ROW_3_85
*697 TAP_TAPCELL_ROW_4_86
*698 TAP_TAPCELL_ROW_4_87
*699 TAP_TAPCELL_ROW_4_88
*700 TAP_TAPCELL_ROW_4_89
*701 TAP_TAPCELL_ROW_4_90
*702 TAP_TAPCELL_ROW_5_91
*703 TAP_TAPCELL_ROW_5_92
*704 TAP_TAPCELL_ROW_5_93
*705 TAP_TAPCELL_ROW_5_94
*706 TAP_TAPCELL_ROW_6_95
*707 TAP_TAPCELL_ROW_6_96
*708 TAP_TAPCELL_ROW_6_97
*709 TAP_TAPCELL_ROW_6_98
*710 TAP_TAPCELL_ROW_6_99
*711 TAP_TAPCELL_ROW_7_100
*712 TAP_TAPCELL_ROW_7_101
*713 TAP_TAPCELL_ROW_7_102
*714 TAP_TAPCELL_ROW_7_103
*715 TAP_TAPCELL_ROW_8_104
*716 TAP_TAPCELL_ROW_8_105
*717 TAP_TAPCELL_ROW_8_106
*718 TAP_TAPCELL_ROW_8_107
*719 TAP_TAPCELL_ROW_8_108
*720 TAP_TAPCELL_ROW_9_109
*721 TAP_TAPCELL_ROW_9_110
*722 TAP_TAPCELL_ROW_9_111
*723 TAP_TAPCELL_ROW_9_112
*724 _11_
*725 _12_
*726 _13_
*727 _14_
*728 _15_
*729 _16_
*730 _17_
*731 _18_
*732 _19_
*733 _20_
*734 _21_
*735 _22_
*736 _23_
*737 _24_
*738 _25_
*739 _26_
*740 _27_
*741 _28_
*742 _29_
*743 _30_
*744 _31_
*745 _32_
*746 _33_

*PORTS
clk I
in[0] I
in[10] I
in[11] I
in[12] I
in[13] I
in[14] I
in[15] I
in[16] I
in[17] I
in[1] I
in[2] I
in[3] I
in[4] I
in[5] I
in[6] I
in[7] I
in[8] I
in[9] I
out[0] O
out[10] O
out[11] O
out[1] O
out[2] O
out[3] O
out[4] O
out[5] O
out[6] O
out[7] O
out[8] O
out[9] O
rst_n I

*D_NET *1 0.00332434
*CONN
*P clk I
*I *746:I I *D gf180mcu_fd_sc_mcu9t5v0__buf_1
*I *70:I I *D gf180mcu_fd_sc_mcu9t5v0__antenna
*CAP
1 clk 0.00152857
2 *746:I 5.31772e-05
3 *70:I 0
4 *1:9 0.00158174
5 *1:9 out[0] 0.000160856
*RES
1 clk *1:9 10.374 
2 *1:9 *70:I 4.5 
3 *1:9 *746:I 4.88 
*END

*D_NET *2 0.0161804
*CONN
*P in[0] I
*I *728:A1 I *D gf180mcu_fd_sc_mcu9t5v0__xnor2_1
*I *52:I I *D gf180mcu_fd_sc_mcu9t5v0__antenna
*CAP
1 in[0] 0.00170137
2 *728:A1 0.000165635
3 *52:I 0
4 *2:13 0.00186701
5 *728:A1 *57:I 0
6 *728:A1 *728:A2 0.000343268
7 *728:A1 *729:A3 1.23313e-05
8 *728:A1 *40:12 0
9 *2:13 *724:A1 0.000340241
10 *2:13 *728:A2 0.000188292
11 *2:13 *13:13 1.20959e-05
12 *2:13 *14:13 0.00439025
13 *2:13 *16:13 0.000578254
14 *2:13 *32:5 0.00658167
*RES
1 in[0] *2:13 33.814 
2 *2:13 *52:I 9 
3 *2:13 *728:A1 10.444 
*END

*D_NET *3 0.0172088
*CONN
*P in[10] I
*I *59:I I *D gf180mcu_fd_sc_mcu9t5v0__antenna
*I *58:I I *D gf180mcu_fd_sc_mcu9t5v0__antenna
*I *735:A1 I *D gf180mcu_fd_sc_mcu9t5v0__xor3_1
*I *734:A1 I *D gf180mcu_fd_sc_mcu9t5v0__xor2_1
*CAP
1 in[10] 0.00279337
2 *59:I 0
3 *58:I 0
4 *735:A1 0.000251366
5 *734:A1 0.000211619
6 *3:32 0.000251366
7 *3:17 0.000314541
8 *3:13 0.00289629
9 *734:A1 *735:A2 3.16765e-06
10 *734:A1 *736:I 0.000523951
11 *734:A1 *25:23 8.82157e-05
12 *735:A1 *735:A2 4.50449e-05
13 *735:A1 *735:A3 0
14 *735:A1 *737:A2 0
15 *735:A1 *25:23 3.1394e-06
16 *735:A1 *27:8 0
17 *3:13 out[4] 0.00549949
18 *3:13 out[6] 0.000243987
19 *3:13 out[9] 0.00166849
20 *3:13 *735:A2 1.10835e-05
21 *3:13 *745:I 0.000990747
22 *3:13 *4:13 0.000234536
23 *3:13 *8:21 0
24 *3:13 *27:21 8.19087e-05
25 *3:13 *29:10 0.000121919
26 *3:13 *29:23 0.000128802
27 *3:17 out[4] 0.000239414
28 *3:17 *735:A2 8.20403e-05
29 *3:17 *736:I 0.000342528
30 *3:17 *27:21 0.000181833
*RES
1 in[10] *3:13 37.158 
2 *3:13 *3:17 2.28 
3 *3:17 *734:A1 10.9 
4 *3:17 *3:32 4.5 
5 *3:32 *735:A1 5.944 
6 *3:32 *58:I 4.5 
7 *3:13 *59:I 9 
*END

*D_NET *4 0.0124147
*CONN
*P in[11] I
*I *60:I I *D gf180mcu_fd_sc_mcu9t5v0__antenna
*I *735:A2 I *D gf180mcu_fd_sc_mcu9t5v0__xor3_1
*CAP
1 in[11] 0.00259289
2 *60:I 0
3 *735:A2 0.000468653
4 *4:13 0.00306154
5 *735:A2 *737:A2 0
6 *735:A2 *738:A1 0
7 *735:A2 *5:27 0.000145591
8 *735:A2 *27:21 0.000240782
9 *4:13 out[4] 9.17202e-06
10 *4:13 out[7] 0.0012353
11 *4:13 out[9] 0.000178264
12 *4:13 *741:A2 0.000641146
13 *4:13 *744:A2 0.000589761
14 *4:13 *745:I 3.71357e-05
15 *4:13 *5:15 0
16 *4:13 *5:27 7.17876e-05
17 *4:13 *8:21 0
18 *4:13 *9:11 0.000725072
19 *4:13 *9:15 0.000139294
20 *4:13 *10:17 0.00159531
21 *4:13 *29:10 0.000150534
22 *4:13 *29:23 0.000156588
23 *734:A1 *735:A2 3.16765e-06
24 *735:A1 *735:A2 4.50449e-05
25 *3:13 *735:A2 1.10835e-05
26 *3:13 *4:13 0.000234536
27 *3:17 *735:A2 8.20403e-05
*RES
1 in[11] *4:13 35.79 
2 *4:13 *735:A2 12.952 
3 *4:13 *60:I 9 
*END

*D_NET *5 0.0122347
*CONN
*P in[12] I
*I *62:I I *D gf180mcu_fd_sc_mcu9t5v0__antenna
*I *61:I I *D gf180mcu_fd_sc_mcu9t5v0__antenna
*I *737:A1 I *D gf180mcu_fd_sc_mcu9t5v0__xor2_1
*I *738:A1 I *D gf180mcu_fd_sc_mcu9t5v0__xor3_1
*CAP
1 in[12] 0.00146641
2 *62:I 0
3 *61:I 0
4 *737:A1 2.12331e-05
5 *738:A1 0.000336134
6 *5:27 0.00071944
7 *5:19 0.000544669
8 *5:15 0.001649
9 *737:A1 out[6] 7.71175e-06
10 *737:A1 *737:A2 5.76373e-06
11 *738:A1 out[6] 0
12 *738:A1 *738:A2 5.1289e-05
13 *738:A1 *27:8 0
14 *5:15 *741:A2 0
15 *5:15 *743:A1 0.000539951
16 *5:15 *6:5 0.00019641
17 *5:15 *7:9 0.00151304
18 *5:15 *7:11 0.000207492
19 *5:15 *7:17 0.000296109
20 *5:15 *8:21 0.0042607
21 *5:19 *739:I 0.000201948
22 *5:19 *741:A1 0
23 *735:A2 *738:A1 0
24 *735:A2 *5:27 0.000145591
25 *4:13 *5:15 0
26 *4:13 *5:27 7.17876e-05
*RES
1 in[12] *5:15 34.21 
2 *5:15 *5:19 1.52 
3 *5:19 *5:27 11.28 
4 *5:27 *738:A1 6.856 
5 *5:27 *737:A1 4.728 
6 *5:19 *61:I 4.5 
7 *5:15 *62:I 4.5 
*END

*D_NET *6 0.00702152
*CONN
*P in[13] I
*I *63:I I *D gf180mcu_fd_sc_mcu9t5v0__antenna
*I *738:A2 I *D gf180mcu_fd_sc_mcu9t5v0__xor3_1
*CAP
1 in[13] 0.00254648
2 *63:I 0
3 *738:A2 0.00083077
4 *6:5 0.00337725
5 *6:5 out[10] 1.9328e-05
6 *6:5 *7:9 0
7 *6:5 *7:11 0
8 *6:5 *7:17 0
9 *738:A1 *738:A2 5.1289e-05
10 *5:15 *6:5 0.00019641
*RES
1 in[13] *6:5 17.974 
2 *6:5 *738:A2 14.32 
3 *6:5 *63:I 9 
*END

*D_NET *7 0.00900727
*CONN
*P in[14] I
*I *65:I I *D gf180mcu_fd_sc_mcu9t5v0__antenna
*I *64:I I *D gf180mcu_fd_sc_mcu9t5v0__antenna
*I *741:A1 I *D gf180mcu_fd_sc_mcu9t5v0__xor3_1
*I *740:A1 I *D gf180mcu_fd_sc_mcu9t5v0__xor2_1
*CAP
1 in[14] 0.000836487
2 *65:I 0
3 *64:I 0
4 *741:A1 0.000224341
5 *740:A1 0
6 *7:17 0.00036819
7 *7:11 0.000206939
8 *7:9 0.000899577
9 *741:A1 *740:A2 0.000185711
10 *7:9 out[10] 0.00353817
11 *7:9 *743:A1 0.000539951
12 *7:9 *9:11 0.000181007
13 *7:17 *740:A2 1.02578e-05
14 *5:15 *7:9 0.00151304
15 *5:15 *7:11 0.000207492
16 *5:15 *7:17 0.000296109
17 *5:19 *741:A1 0
18 *6:5 *7:9 0
19 *6:5 *7:11 0
20 *6:5 *7:17 0
*RES
1 in[14] *7:9 15.086 
2 *7:9 *7:11 0.988 
3 *7:11 *7:17 6.172 
4 *7:17 *740:A1 4.5 
5 *7:17 *741:A1 6.21407 
6 *7:11 *64:I 9 
7 *7:9 *65:I 9 
*END

*D_NET *8 0.0102273
*CONN
*P in[15] I
*I *66:I I *D gf180mcu_fd_sc_mcu9t5v0__antenna
*I *741:A2 I *D gf180mcu_fd_sc_mcu9t5v0__xor3_1
*CAP
1 in[15] 0.00170132
2 *66:I 0.000211714
3 *741:A2 0.00058606
4 *8:21 0.00249909
5 *66:I *743:A2 1.04548e-06
6 *66:I *744:A1 9.37296e-06
7 *66:I *744:A2 0
8 *66:I *745:I 7.45328e-07
9 *66:I *9:19 7.45328e-07
10 *66:I *31:10 6.71768e-05
11 *8:21 out[6] 1.9328e-05
12 *8:21 *743:A2 1.36863e-05
13 *8:21 *9:11 0.000150039
14 *8:21 *9:15 4.21654e-05
15 *8:21 *9:19 2.29986e-05
16 *3:13 *8:21 0
17 *4:13 *741:A2 0.000641146
18 *4:13 *8:21 0
19 *5:15 *741:A2 0
20 *5:15 *8:21 0.0042607
*RES
1 in[15] *8:21 30.942 
2 *8:21 *741:A2 18.592 
3 *8:21 *66:I 5.792 
*END

*D_NET *9 0.00571816
*CONN
*P in[16] I
*I *68:I I *D gf180mcu_fd_sc_mcu9t5v0__antenna
*I *744:A1 I *D gf180mcu_fd_sc_mcu9t5v0__xor3_1
*I *67:I I *D gf180mcu_fd_sc_mcu9t5v0__antenna
*I *743:A1 I *D gf180mcu_fd_sc_mcu9t5v0__xor2_1
*CAP
1 in[16] 0.00122701
2 *68:I 0
3 *744:A1 2.81168e-05
4 *67:I 0
5 *743:A1 7.18478e-06
6 *9:19 0.000279627
7 *9:15 0.000393229
8 *9:11 0.00131968
9 *744:A1 *744:A2 6.73926e-05
10 *9:11 *10:17 3.54346e-05
11 *9:19 *744:A2 9.88736e-06
12 *66:I *744:A1 9.37296e-06
13 *66:I *9:19 7.45328e-07
14 *4:13 *9:11 0.000725072
15 *4:13 *9:15 0.000139294
16 *5:15 *743:A1 0.000539951
17 *7:9 *743:A1 0.000539951
18 *7:9 *9:11 0.000181007
19 *8:21 *9:11 0.000150039
20 *8:21 *9:15 4.21654e-05
21 *8:21 *9:19 2.29986e-05
*RES
1 in[16] *9:11 11.362 
2 *9:11 *9:15 5.64 
3 *9:15 *9:19 1.52 
4 *9:19 *743:A1 14.792 
5 *9:19 *67:I 4.5 
6 *9:15 *744:A1 4.88 
7 *9:11 *68:I 9 
*END

*D_NET *10 0.00595557
*CONN
*P in[17] I
*I *69:I I *D gf180mcu_fd_sc_mcu9t5v0__antenna
*I *744:A2 I *D gf180mcu_fd_sc_mcu9t5v0__xor3_1
*CAP
1 in[17] 0.000918599
2 *69:I 3.90274e-05
3 *744:A2 0.00012993
4 *10:17 0.00108756
5 *744:A2 out[9] 0.000196387
6 *10:17 out[9] 0.00128628
7 *66:I *744:A2 0
8 *744:A1 *744:A2 6.73926e-05
9 *4:13 *744:A2 0.000589761
10 *4:13 *10:17 0.00159531
11 *9:11 *10:17 3.54346e-05
12 *9:19 *744:A2 9.88736e-06
*RES
1 in[17] *10:17 19.83 
2 *10:17 *744:A2 11.128 
3 *10:17 *69:I 9.228 
*END

*D_NET *11 0.00687705
*CONN
*P in[1] I
*I *726:A1 I *D gf180mcu_fd_sc_mcu9t5v0__xor2_1
*I *50:I I *D gf180mcu_fd_sc_mcu9t5v0__antenna
*CAP
1 in[1] 0.00212255
2 *726:A1 0.000336328
3 *50:I 0.000335605
4 *11:5 0.00279449
5 *50:I *51:I 9.67157e-05
6 *50:I *727:A1 0
7 *50:I *727:A3 0.000108522
8 *50:I *12:21 5.08971e-06
9 *726:A1 *51:I 1.5015e-05
10 *726:A1 *725:A1 0
11 *726:A1 *12:21 0.000211477
12 *726:A1 *18:13 0
13 *726:A1 *32:5 2.24191e-05
14 *11:5 *725:A1 0
15 *11:5 *13:13 0
16 *11:5 *15:9 0.000191794
17 *11:5 *32:5 0.000637043
*RES
1 in[1] *11:5 17.366 
2 *11:5 *50:I 11.356 
3 *11:5 *726:A1 11.356 
*END

*D_NET *12 0.00985618
*CONN
*P in[2] I
*I *726:A2 I *D gf180mcu_fd_sc_mcu9t5v0__xor2_1
*I *51:I I *D gf180mcu_fd_sc_mcu9t5v0__antenna
*CAP
1 in[2] 0.00352059
2 *726:A2 0
3 *51:I 0.000142981
4 *12:21 0.00366357
5 *12:21 *725:A1 5.6887e-05
6 *12:21 *725:A2 0.000190037
7 *12:21 *727:A2 0.000159199
8 *12:21 *727:A3 0.000483795
9 *12:21 *729:A1 0
10 *12:21 *17:15 0.000173734
11 *12:21 *18:13 0.000670774
12 *12:21 *19:17 0.000466324
13 *50:I *51:I 9.67157e-05
14 *50:I *12:21 5.08971e-06
15 *726:A1 *51:I 1.5015e-05
16 *726:A1 *12:21 0.000211477
*RES
1 in[2] *12:21 39.454 
2 *12:21 *51:I 5.64 
3 *12:21 *726:A2 4.5 
*END

*D_NET *13 0.0105312
*CONN
*P in[3] I
*I *725:A1 I *D gf180mcu_fd_sc_mcu9t5v0__xnor2_1
*I *48:I I *D gf180mcu_fd_sc_mcu9t5v0__antenna
*CAP
1 in[3] 0.00208434
2 *725:A1 0.000286163
3 *48:I 4.91079e-05
4 *13:13 0.00241961
5 *48:I *727:A2 5.75752e-06
6 *725:A1 *725:A2 0.000500725
7 *725:A1 *729:A1 0
8 *725:A1 *18:13 3.19219e-05
9 *13:13 *725:A2 0.000247234
10 *13:13 *14:13 6.10482e-05
11 *13:13 *15:9 0.00438878
12 *13:13 *16:13 0.000244978
13 *13:13 *32:5 0.000142505
14 *726:A1 *725:A1 0
15 *2:13 *13:13 1.20959e-05
16 *11:5 *725:A1 0
17 *11:5 *13:13 0
18 *12:21 *725:A1 5.6887e-05
*RES
1 in[3] *13:13 28.646 
2 *13:13 *48:I 9.228 
3 *13:13 *725:A1 11.052 
*END

*D_NET *14 0.0117234
*CONN
*P in[4] I
*I *724:A1 I *D gf180mcu_fd_sc_mcu9t5v0__xnor2_1
*I *46:I I *D gf180mcu_fd_sc_mcu9t5v0__antenna
*CAP
1 in[4] 0.000912923
2 *724:A1 1.68233e-05
3 *46:I 0
4 *14:13 0.000929746
5 *724:A1 *724:A2 0.000247234
6 *14:13 *724:A2 0.000285856
7 *14:13 *16:13 0.00453925
8 *2:13 *724:A1 0.000340241
9 *2:13 *14:13 0.00439025
10 *13:13 *14:13 6.10482e-05
*RES
1 in[4] *14:13 26.366 
2 *14:13 *46:I 9 
3 *14:13 *724:A1 9.836 
*END

*D_NET *15 0.0125265
*CONN
*P in[5] I
*I *725:A2 I *D gf180mcu_fd_sc_mcu9t5v0__xnor2_1
*I *49:I I *D gf180mcu_fd_sc_mcu9t5v0__antenna
*CAP
1 in[5] 0.000709772
2 *725:A2 6.42257e-05
3 *49:I 0
4 *15:9 0.000773997
5 *725:A2 *18:13 0.000696227
6 *15:9 out[2] 0.000142968
7 *15:9 *18:13 0.00462079
8 *725:A1 *725:A2 0.000500725
9 *11:5 *15:9 0.000191794
10 *12:21 *725:A2 0.000190037
11 *13:13 *725:A2 0.000247234
12 *13:13 *15:9 0.00438878
*RES
1 in[5] *15:9 16.454 
2 *15:9 *49:I 9 
3 *15:9 *725:A2 11.28 
*END

*D_NET *16 0.00870577
*CONN
*P in[6] I
*I *724:A2 I *D gf180mcu_fd_sc_mcu9t5v0__xnor2_1
*I *47:I I *D gf180mcu_fd_sc_mcu9t5v0__antenna
*CAP
1 in[6] 0.00125801
2 *724:A2 0.000147085
3 *47:I 0
4 *16:13 0.0014051
5 *724:A1 *724:A2 0.000247234
6 *2:13 *16:13 0.000578254
7 *13:13 *16:13 0.000244978
8 *14:13 *724:A2 0.000285856
9 *14:13 *16:13 0.00453925
*RES
1 in[6] *16:13 24.694 
2 *16:13 *47:I 9 
3 *16:13 *724:A2 10.52 
*END

*D_NET *17 0.012589
*CONN
*P in[7] I
*I *54:I I *D gf180mcu_fd_sc_mcu9t5v0__antenna
*I *729:A1 I *D gf180mcu_fd_sc_mcu9t5v0__xnor3_1
*CAP
1 in[7] 0.00111731
2 *54:I 0
3 *729:A1 0.000255547
4 *17:15 0.00137286
5 *17:15 out[2] 0.00291688
6 *17:15 *18:13 0.00660704
7 *17:15 *19:17 0.000145665
8 *725:A1 *729:A1 0
9 *12:21 *729:A1 0
10 *12:21 *17:15 0.000173734
*RES
1 in[7] *17:15 36.034 
2 *17:15 *729:A1 5.944 
3 *17:15 *54:I 4.5 
*END

*D_NET *18 0.0177949
*CONN
*P in[8] I
*I *731:A1 I *D gf180mcu_fd_sc_mcu9t5v0__xnor2_1
*I *732:A1 I *D gf180mcu_fd_sc_mcu9t5v0__xnor3_1
*I *55:I I *D gf180mcu_fd_sc_mcu9t5v0__antenna
*I *56:I I *D gf180mcu_fd_sc_mcu9t5v0__antenna
*CAP
1 in[8] 0.00152012
2 *731:A1 5.4266e-05
3 *732:A1 0.000123986
4 *55:I 0
5 *56:I 0.000125474
6 *18:33 0.000304652
7 *18:17 0.000158804
8 *18:13 0.00167985
9 *56:I *19:17 7.00492e-05
10 *731:A1 *731:A2 9.61205e-06
11 *731:A1 *19:17 1.76898e-05
12 *731:A1 *40:12 1.91917e-06
13 *732:A1 *19:17 0.000346836
14 *732:A1 *40:12 5.29091e-05
15 *18:13 out[2] 0.000519427
16 *18:13 *40:12 4.81095e-05
17 *18:17 *19:17 2.22657e-05
18 *18:33 out[1] 0
19 *18:33 out[2] 8.30464e-05
20 *18:33 *40:12 2.91769e-05
21 *725:A1 *18:13 3.19219e-05
22 *725:A2 *18:13 0.000696227
23 *726:A1 *18:13 0
24 *12:21 *18:13 0.000670774
25 *15:9 *18:13 0.00462079
26 *17:15 *18:13 0.00660704
*RES
1 in[8] *18:13 36.246 
2 *18:13 *18:17 4.728 
3 *18:17 *56:I 5.336 
4 *18:17 *55:I 4.5 
5 *18:13 *18:33 5.488 
6 *18:33 *732:A1 5.792 
7 *18:33 *731:A1 4.956 
*END

*D_NET *19 0.00972001
*CONN
*P in[9] I
*I *732:A2 I *D gf180mcu_fd_sc_mcu9t5v0__xnor3_1
*I *57:I I *D gf180mcu_fd_sc_mcu9t5v0__antenna
*CAP
1 in[9] 0.00303389
2 *732:A2 0
3 *57:I 0.000189371
4 *19:17 0.00322326
5 *19:17 out[1] 0.00220466
6 *56:I *19:17 7.00492e-05
7 *728:A1 *57:I 0
8 *731:A1 *19:17 1.76898e-05
9 *732:A1 *19:17 0.000346836
10 *12:21 *19:17 0.000466324
11 *17:15 *19:17 0.000145665
12 *18:17 *19:17 2.22657e-05
*RES
1 in[9] *19:17 32.278 
2 *19:17 *57:I 5.64 
3 *19:17 *732:A2 4.5 
*END

*D_NET *20 0.00325001
*CONN
*P out[0] O
*I *746:Z O *D gf180mcu_fd_sc_mcu9t5v0__buf_1
*CAP
1 out[0] 0.00154458
2 *746:Z 0.00154458
3 *1:9 out[0] 0.000160856
*RES
1 *746:Z out[0] 14.798 
*END

*D_NET *21 0.00587986
*CONN
*P out[10] O
*I *743:Z O *D gf180mcu_fd_sc_mcu9t5v0__xor2_1
*CAP
1 out[10] 0.00116118
2 *743:Z 0.00116118
3 *6:5 out[10] 1.9328e-05
4 *7:9 out[10] 0.00353817
*RES
1 *743:Z out[10] 21.958 
*END

*D_NET *22 0.00697538
*CONN
*P out[11] O
*I *745:Z O *D gf180mcu_fd_sc_mcu9t5v0__buf_1
*CAP
1 out[11] 0.00146241
2 *745:Z 0.00146241
3 out[11] out[3] 0.00364134
4 out[11] out[4] 0.000190317
5 out[11] out[5] 0.00019641
6 out[11] out[8] 2.2499e-05
*RES
1 *745:Z out[11] 33.01 
*END

*D_NET *23 0.00815022
*CONN
*P out[1] O
*I *730:ZN O *D gf180mcu_fd_sc_mcu9t5v0__inv_1
*CAP
1 out[1] 0.00254274
2 *730:ZN 0.00254274
3 out[1] out[2] 0.000860078
4 *18:33 out[1] 0