*SPEF "ieee 1481-1999"
*DESIGN "loopback"
*DATE "11:11:11 Fri 11 11, 1111"
*VENDOR "OpenRCX"
*PROGRAM "Parallel Extraction"
*VERSION "1.0"
*DESIGN_FLOW "NAME_SCOPE LOCAL" "PIN_CAP NONE"
*DIVIDER /
*DELIMITER :
*BUS_DELIMITER []
*T_UNIT 1 NS
*C_UNIT 1 PF
*R_UNIT 1 OHM
*L_UNIT 1 HENRY

*NAME_MAP
*1 clk
*2 in[0]
*3 in[10]
*4 in[11]
*5 in[12]
*6 in[13]
*7 in[14]
*8 in[15]
*9 in[16]
*10 in[17]
*11 in[18]
*12 in[1]
*13 in[2]
*14 in[3]
*15 in[4]
*16 in[5]
*17 in[6]
*18 in[7]
*19 in[8]
*20 in[9]
*21 out[0]
*22 out[10]
*23 out[11]
*24 out[1]
*25 out[2]
*26 out[3]
*27 out[4]
*28 out[5]
*29 out[6]
*30 out[7]
*31 out[8]
*32 out[9]
*33 rst_n
*36 _00_
*37 _01_
*38 _02_
*39 _03_
*40 _04_
*41 _05_
*42 _06_
*43 _07_
*44 _08_
*45 _09_
*46 _10_
*47 _11_
*48 _12_
*49 _13_
*50 _14_
*51 _15_
*52 net1
*53 net10
*54 net11
*55 net12
*56 net13
*57 net14
*58 net15
*59 net16
*60 net17
*61 net18
*62 net19
*63 net2
*64 net20
*65 net21
*66 net22
*67 net23
*68 net24
*69 net25
*70 net26
*71 net27
*72 net28
*73 net29
*74 net3
*75 net30
*76 net31
*77 net32
*78 net4
*79 net5
*80 net6
*81 net7
*82 net8
*83 net9
*84 ANTENNA__43__I
*85 ANTENNA_input10_I
*86 ANTENNA_input11_I
*87 ANTENNA_input12_I
*88 ANTENNA_input13_I
*89 ANTENNA_input14_I
*90 ANTENNA_input15_I
*91 ANTENNA_input16_I
*92 ANTENNA_input17_I
*93 ANTENNA_input18_I
*94 ANTENNA_input19_I
*95 ANTENNA_input1_I
*96 ANTENNA_input20_I
*97 ANTENNA_input2_I
*98 ANTENNA_input3_I
*99 ANTENNA_input4_I
*100 ANTENNA_input5_I
*101 ANTENNA_input6_I
*102 ANTENNA_input7_I
*103 ANTENNA_input8_I
*104 ANTENNA_input9_I
*105 FILLER_0_0_101
*106 FILLER_0_0_104
*107 FILLER_0_0_112
*108 FILLER_0_0_12
*109 FILLER_0_0_16
*110 FILLER_0_0_32
*111 FILLER_0_0_36
*112 FILLER_0_0_44
*113 FILLER_0_0_46
*114 FILLER_0_0_67
*115 FILLER_0_0_70
*116 FILLER_0_0_72
*117 FILLER_0_0_8
*118 FILLER_0_0_99
*119 FILLER_0_10_115
*120 FILLER_0_10_2
*121 FILLER_0_10_34
*122 FILLER_0_10_37
*123 FILLER_0_10_45
*124 FILLER_0_10_49
*125 FILLER_0_10_52
*126 FILLER_0_11_2
*127 FILLER_0_11_36
*128 FILLER_0_11_46
*129 FILLER_0_1_102
*130 FILLER_0_1_104
*131 FILLER_0_1_107
*132 FILLER_0_1_109
*133 FILLER_0_1_14
*134 FILLER_0_1_18
*135 FILLER_0_1_34
*136 FILLER_0_1_42
*137 FILLER_0_1_51
*138 FILLER_0_1_61
*139 FILLER_0_1_69
*140 FILLER_0_1_98
*141 FILLER_0_2_113
*142 FILLER_0_2_115
*143 FILLER_0_2_14
*144 FILLER_0_2_18
*145 FILLER_0_2_22
*146 FILLER_0_2_30
*147 FILLER_0_2_34
*148 FILLER_0_2_37
*149 FILLER_0_2_45
*150 FILLER_0_2_49
*151 FILLER_0_2_51
*152 FILLER_0_2_60
*153 FILLER_0_2_92
*154 FILLER_0_2_96
*155 FILLER_0_2_98
*156 FILLER_0_3_37
*157 FILLER_0_3_45
*158 FILLER_0_3_72
*159 FILLER_0_3_74
*160 FILLER_0_3_83
*161 FILLER_0_4_10
*162 FILLER_0_4_113
*163 FILLER_0_4_115
*164 FILLER_0_4_34
*165 FILLER_0_4_49
*166 FILLER_0_4_8
*167 FILLER_0_5_17
*168 FILLER_0_5_2
*169 FILLER_0_5_21
*170 FILLER_0_5_4
*171 FILLER_0_5_52
*172 FILLER_0_5_54
*173 FILLER_0_5_67
*174 FILLER_0_5_69
*175 FILLER_0_5_72
*176 FILLER_0_5_74
*177 FILLER_0_5_87
*178 FILLER_0_5_89
*179 FILLER_0_6_115
*180 FILLER_0_6_14
*181 FILLER_0_6_18
*182 FILLER_0_6_22
*183 FILLER_0_6_30
*184 FILLER_0_6_34
*185 FILLER_0_6_37
*186 FILLER_0_6_53
*187 FILLER_0_6_55
*188 FILLER_0_7_12
*189 FILLER_0_7_44
*190 FILLER_0_7_60
*191 FILLER_0_7_8
*192 FILLER_0_8_115
*193 FILLER_0_8_12
*194 FILLER_0_8_28
*195 FILLER_0_8_32
*196 FILLER_0_8_34
*197 FILLER_0_8_37
*198 FILLER_0_8_53
*199 FILLER_0_8_55
*200 FILLER_0_8_8
*201 FILLER_0_9_2
*202 FILLER_0_9_34
*203 FILLER_0_9_50
*204 FILLER_0_9_60
*205 PHY_EDGE_ROW_0_Left_12
*206 PHY_EDGE_ROW_0_Right_0
*207 PHY_EDGE_ROW_10_Left_22
*208 PHY_EDGE_ROW_10_Right_10
*209 PHY_EDGE_ROW_11_Left_23
*210 PHY_EDGE_ROW_11_Right_11
*211 PHY_EDGE_ROW_1_Left_13
*212 PHY_EDGE_ROW_1_Right_1
*213 PHY_EDGE_ROW_2_Left_14
*214 PHY_EDGE_ROW_2_Right_2
*215 PHY_EDGE_ROW_3_Left_15
*216 PHY_EDGE_ROW_3_Right_3
*217 PHY_EDGE_ROW_4_Left_16
*218 PHY_EDGE_ROW_4_Right_4
*219 PHY_EDGE_ROW_5_Left_17
*220 PHY_EDGE_ROW_5_Right_5
*221 PHY_EDGE_ROW_6_Left_18
*222 PHY_EDGE_ROW_6_Right_6
*223 PHY_EDGE_ROW_7_Left_19
*224 PHY_EDGE_ROW_7_Right_7
*225 PHY_EDGE_ROW_8_Left_20
*226 PHY_EDGE_ROW_8_Right_8
*227 PHY_EDGE_ROW_9_Left_21
*228 PHY_EDGE_ROW_9_Right_9
*229 TAP_TAPCELL_ROW_0_24
*230 TAP_TAPCELL_ROW_0_25
*231 TAP_TAPCELL_ROW_0_26
*232 TAP_TAPCELL_ROW_10_40
*233 TAP_TAPCELL_ROW_10_41
*234 TAP_TAPCELL_ROW_11_42
*235 TAP_TAPCELL_ROW_11_43
*236 TAP_TAPCELL_ROW_11_44
*237 TAP_TAPCELL_ROW_1_27
*238 TAP_TAPCELL_ROW_2_28
*239 TAP_TAPCELL_ROW_2_29
*240 TAP_TAPCELL_ROW_3_30
*241 TAP_TAPCELL_ROW_4_31
*242 TAP_TAPCELL_ROW_4_32
*243 TAP_TAPCELL_ROW_5_33
*244 TAP_TAPCELL_ROW_6_34
*245 TAP_TAPCELL_ROW_6_35
*246 TAP_TAPCELL_ROW_7_36
*247 TAP_TAPCELL_ROW_8_37
*248 TAP_TAPCELL_ROW_8_38
*249 TAP_TAPCELL_ROW_9_39
*250 _16_
*251 _17_
*252 _18_
*253 _19_
*254 _20_
*255 _21_
*256 _22_
*257 _23_
*258 _24_
*259 _25_
*260 _26_
*261 _27_
*262 _28_
*263 _29_
*264 _30_
*265 _31_
*266 _32_
*267 _33_
*268 _34_
*269 _35_
*270 _36_
*271 _37_
*272 _38_
*273 _39_
*274 _40_
*275 _41_
*276 _42_
*277 _43_
*278 input1
*279 input10
*280 input11
*281 input12
*282 input13
*283 input14
*284 input15
*285 input16
*286 input17
*287 input18
*288 input19
*289 input2
*290 input20
*291 input3
*292 input4
*293 input5
*294 input6
*295 input7
*296 input8
*297 input9
*298 output21
*299 output22
*300 output23
*301 output24
*302 output25
*303 output26
*304 output27
*305 output28
*306 output29
*307 output30
*308 output31
*309 output32

*PORTS
clk I
in[0] I
in[10] I
in[11] I
in[12] I
in[13] I
in[14] I
in[15] I
in[16] I
in[17] I
in[18] I
in[1] I
in[2] I
in[3] I
in[4] I
in[5] I
in[6] I
in[7] I
in[8] I
in[9] I
out[0] O
out[10] O
out[11] O
out[1] O
out[2] O
out[3] O
out[4] O
out[5] O
out[6] O
out[7] O
out[8] O
out[9] O
rst_n I

*D_NET *1 0.00188917
*CONN
*P clk I
*I *277:I I *D gf180mcu_fd_sc_mcu7t5v0__buf_1
*I *84:I I *D gf180mcu_fd_sc_mcu7t5v0__antenna
*CAP
1 clk 0.00078105
2 *277:I 0.000110194
3 *84:I 0
4 *1:13 0.000891245
5 *277:I *298:I 7.71175e-06
6 *1:13 out[0] 9.89674e-05
7 *1:13 *3:9 0
*RES
1 clk *1:13 5.51 
2 *1:13 *84:I 4.5 
3 *1:13 *277:I 5.26 
*END

*D_NET *2 0.00232612
*CONN
*P in[0] I
*I *95:I I *D gf180mcu_fd_sc_mcu7t5v0__antenna
*I *278:I I *D gf180mcu_fd_sc_mcu7t5v0__clkbuf_1
*CAP
1 in[0] 0.000171394
2 *95:I 0.000370654
3 *278:I 2.3925e-05
4 *2:7 0.000565973
5 *95:I *250:A2 0.000310356
6 *95:I *252:A2 5.19125e-05
7 *95:I *254:A2 0.000203645
8 *95:I *33:9 0.000432994
9 *278:I *250:A2 8.55242e-05
10 *2:7 *15:9 5.25699e-05
11 *2:7 *33:9 5.71705e-05
*RES
1 in[0] *2:7 6.058 
2 *2:7 *278:I 4.728 
3 *2:7 *95:I 16.692 
*END

*D_NET *3 0.00201439
*CONN
*P in[10] I
*I *289:I I *D gf180mcu_fd_sc_mcu7t5v0__clkbuf_1
*I *97:I I *D gf180mcu_fd_sc_mcu7t5v0__antenna
*CAP
1 in[10] 0.000509271
2 *289:I 0.000223964
3 *97:I 5.25133e-05
4 *3:9 0.000785748
5 *97:I out[0] 7.50749e-05
6 *97:I *298:I 0
7 *3:9 out[0] 0.000263968
8 *3:9 *259:A2 9.60518e-06
9 *3:9 *298:I 2.6126e-05
10 *3:9 *20:9 6.81204e-05
11 *1:13 *3:9 0
*RES
1 in[10] *3:9 4.446 
2 *3:9 *97:I 5.032 
3 *3:9 *289:I 14.64 
*END

*D_NET *4 0.00175912
*CONN
*P in[11] I
*I *98:I I *D gf180mcu_fd_sc_mcu7t5v0__antenna
*I *291:I I *D gf180mcu_fd_sc_mcu7t5v0__clkbuf_1
*CAP
1 in[11] 0.000546549
2 *98:I 0.00017077
3 *291:I 6.63131e-05
4 *4:9 0.000783632
5 *98:I *308:I 5.1289e-05
6 *98:I *5:9 0
7 *98:I *74:16 1.15275e-05
8 *291:I *74:16 3.07734e-05
9 *4:9 *263:A2 0
10 *4:9 *276:I 0
11 *4:9 *308:I 3.98546e-05
12 *4:9 *5:9 3.92909e-05
13 *4:9 *74:16 1.91184e-05
*RES
1 in[11] *4:9 7.806 
2 *4:9 *291:I 5.108 
3 *4:9 *98:I 5.716 
*END

*D_NET *5 0.00188716
*CONN
*P in[12] I
*I *99:I I *D gf180mcu_fd_sc_mcu7t5v0__antenna
*I *292:I I *D gf180mcu_fd_sc_mcu7t5v0__clkbuf_1
*CAP
1 in[12] 0.000553276
2 *99:I 0.000216707
3 *292:I 0
4 *5:9 0.000769983
5 *5:9 out[3] 4.17858e-05
6 *5:9 *270:I 0.000260973
7 *5:9 *308:I 5.14116e-06
8 *98:I *5:9 0
9 *4:9 *5:9 3.92909e-05
*RES
1 in[12] *5:9 8.414 
2 *5:9 *292:I 4.5 
3 *5:9 *99:I 5.868 
*END

*D_NET *6 0.00351494
*CONN
*P in[13] I
*I *293:I I *D gf180mcu_fd_sc_mcu7t5v0__clkbuf_1
*I *100:I I *D gf180mcu_fd_sc_mcu7t5v0__antenna
*CAP
1 in[13] 0.000627362
2 *293:I 0
3 *100:I 0.000182811
4 *6:5 0.000810173
5 *100:I *101:I 0.000657556
6 *100:I *104:I 7.96462e-05
7 *100:I *273:A1 0.000177714
8 *100:I *275:A1 3.36949e-05
9 *100:I *297:I 3.42838e-05
10 *100:I *10:9 0.000401661
11 *100:I *81:10 0.000376901
12 *6:5 *7:5 0.000125118
13 *6:5 *79:12 8.01993e-06
*RES
1 in[13] *6:5 4.294 
2 *6:5 *100:I 17.148 
3 *6:5 *293:I 4.5 
*END

*D_NET *7 0.00295238
*CONN
*P in[14] I
*I *294:I I *D gf180mcu_fd_sc_mcu7t5v0__clkbuf_1
*I *101:I I *D gf180mcu_fd_sc_mcu7t5v0__antenna
*CAP
1 in[14] 0.000593466
2 *294:I 0
3 *101:I 0.000238226
4 *7:5 0.000831692
5 *101:I *104:I 0.000111581
6 *101:I *273:A1 0.000383362
7 *7:5 *267:A2 9.88736e-06
8 *7:5 *275:A1 1.49066e-06
9 *100:I *101:I 0.000657556
10 *6:5 *7:5 0.000125118
*RES
1 in[14] *7:5 4.142 
2 *7:5 *101:I 16.16 
3 *7:5 *294:I 4.5 
*END

*D_NET *8 0.00450383
*CONN
*P in[15] I
*I *295:I I *D gf180mcu_fd_sc_mcu7t5v0__clkbuf_1
*I *102:I I *D gf180mcu_fd_sc_mcu7t5v0__antenna
*CAP
1 in[15] 0.00189994
2 *295:I 0
3 *102:I 0.000153941
4 *8:9 0.00205388
5 *102:I *104:I 0
6 *102:I *81:10 0.000169363
7 *8:9 out[10] 0.000189356
8 *8:9 *275:A1 0
9 *8:9 *81:10 3.73535e-05
*RES
1 in[15] *8:9 18.294 
2 *8:9 *102:I 5.716 
3 *8:9 *295:I 4.5 
*END

*D_NET *9 0.00444796
*CONN
*P in[16] I
*I *296:I I *D gf180mcu_fd_sc_mcu7t5v0__clkbuf_1
*I *103:I I *D gf180mcu_fd_sc_mcu7t5v0__antenna
*CAP
1 in[16] 0.000825397
2 *296:I 4.50317e-05
3 *103:I 5.79477e-05
4 *9:5 0.000928376
5 *103:I *85:I 0.000324233
6 *103:I *275:A2 4.08987e-05
7 *103:I *10:9 0
8 *296:I *267:A2 5.87561e-06
9 *296:I *271:A2 4.58601e-06
10 *296:I *275:A2 1.91917e-06
11 *296:I *276:I 1.49066e-06
12 *9:5 out[7] 5.29041e-05
13 *9:5 *85:I 0.000456703
14 *9:5 *270:I 7.92072e-05
15 *9:5 *274:I 0.00027108
16 *9:5 *275:A2 4.98189e-05
17 *9:5 *275:A3 7.20931e-05
18 *9:5 *10:9 5.31443e-05
19 *9:5 *11:9 0.000864911
20 *9:5 *77:10 4.57747e-05
21 *9:5 *77:12 0.000266566
*RES
1 in[16] *9:5 8.55 
2 *9:5 *103:I 9.836 
3 *9:5 *296:I 9.228 
*END

*D_NET *10 0.00628356
*CONN
*P in[17] I
*I *297:I I *D gf180mcu_fd_sc_mcu7t5v0__clkbuf_1
*I *104:I I *D gf180mcu_fd_sc_mcu7t5v0__antenna
*CAP
1 in[17] 0.00120084
2 *297:I 4.04501e-05
3 *104:I 0.000335323
4 *10:9 0.00157661
5 *297:I *275:A1 5.4961e-05
6 *10:9 out[9] 0.00010125
7 *10:9 *273:A1 5.90841e-05
8 *10:9 *275:A2 9.43529e-05
9 *10:9 *275:A3 0.000246336
10 *10:9 *77:10 0.000262996
11 *10:9 *77:12 0.00163105
12 *100:I *104:I 7.96462e-05
13 *100:I *297:I 3.42838e-05
14 *100:I *10:9 0.000401661
15 *101:I *104:I 0.000111581
16 *102:I *104:I 0
17 *103:I *10:9 0
18 *9:5 *10:9 5.31443e-05
*RES
1 in[17] *10:9 10.83 
2 *10:9 *104:I 11.28 
3 *10:9 *297:I 9.38 
*END

*D_NET *11 0.00512704
*CONN
*P in[18] I
*I *279:I I *D gf180mcu_fd_sc_mcu7t5v0__clkbuf_1
*I *85:I I *D gf180mcu_fd_sc_mcu7t5v0__antenna
*CAP
1 in[18] 0.00103899
2 *279:I 0
3 *85:I 0.000159798
4 *11:9 0.00119879
5 *85:I *269:A1 0.000438056
6 *85:I *81:10 3.12396e-05
7 *11:9 out[10] 0.000319513
8 *11:9 out[11] 0
9 *11:9 out[9] 0
10 *11:9 *268:I 0
11 *11:9 *269:A1 0.000165303
12 *11:9 *270:I 2.36862e-05
13 *11:9 *299:I 0.000105815
14 *103:I *85:I 0.000324233
15 *9:5 *85:I 0.000456703
16 *9:5 *11:9 0.000864911
*RES
1 in[18] *11:9 12.974 
2 *11:9 *85:I 11.66 
3 *11:9 *279:I 9 
*END

*D_NET *12 0.000982073
*CONN
*P in[1] I
*I *86:I I *D gf180mcu_fd_sc_mcu7t5v0__antenna
*I *280:I I *D gf180mcu_fd_sc_mcu7t5v0__clkbuf_1
*CAP
1 in[1] 0.000165534
2 *86:I 0.000269089
3 *280:I 0
4 *12:5 0.000434623
5 *86:I *92:I 2.24127e-05
6 *86:I *18:5 3.54047e-05
7 *12:5 *18:5 5.50106e-05
*RES
1 in[1] *12:5 1.406 
2 *12:5 *280:I 9 
3 *12:5 *86:I 10.748 
*END

*D_NET *13 0.00102665
*CONN
*P in[2] I
*I *87:I I *D gf180mcu_fd_sc_mcu7t5v0__antenna
*I *281:I I *D gf180mcu_fd_sc_mcu7t5v0__clkbuf_1
*CAP
1 in[2] 0.000150232
2 *87:I 0.000193825
3 *281:I 4.72841e-05
4 *13:5 0.000391341
5 *87:I *90:I 3.18726e-05
6 *87:I *91:I 3.51269e-05
7 *87:I *254:A2 2.22758e-05
8 *87:I *16:5 1.34641e-06
9 *281:I *250:A2 4.27914e-05
10 *13:5 *91:I 2.97354e-06
11 *13:5 *16:5 5.25699e-05
12 *13:5 *17:5 5.50106e-05
*RES
1 in[2] *13:5 1.406 
2 *13:5 *281:I 9.38 
3 *13:5 *87:I 10.368 
*END

*D_NET *14 0.001795
*CONN
*P in[3] I
*I *88:I I *D gf180mcu_fd_sc_mcu7t5v0__antenna
*I *282:I I *D gf180mcu_fd_sc_mcu7t5v0__clkbuf_1
*CAP
1 in[3] 0.000155489
2 *88:I 0.000378617
3 *282:I 7.59049e-05
4 *14:5 0.000610011
5 *88:I *89:I 6.66634e-05
6 *88:I *92:I 9.01634e-06
7 *88:I *93:I 2.20428e-05
8 *88:I *250:A1 0.000124364
9 *88:I *286:I 0.000147313
10 *88:I *18:5 2.99905e-05
11 *282:I *250:A1 1.44832e-05
12 *282:I *254:A1 5.4883e-05
13 *14:5 *89:I 4.29636e-06
14 *14:5 *18:5 5.50106e-05
15 *14:5 *19:9 4.69146e-05
*RES
1 in[3] *14:5 1.406 
2 *14:5 *282:I 9.532 
3 *14:5 *88:I 11.736 
*END

*D_NET *15 0.00281156
*CONN
*P in[4] I
*I *89:I I *D gf180mcu_fd_sc_mcu7t5v0__antenna
*I *283:I I *D gf180mcu_fd_sc_mcu7t5v0__clkbuf_1
*CAP
1 in[4] 0.000334151
2 *89:I 0.000147514
3 *283:I 2.88815e-05
4 *15:9 0.000510546
5 *89:I *93:I 0.000421621
6 *89:I *254:A1 0.000899798
7 *89:I *255:A1 2.2746e-05
8 *89:I *19:9 5.43087e-05
9 *283:I *254:A1 3.73535e-05
10 *15:9 *250:A2 9.74134e-05
11 *15:9 *252:A1 4.80781e-05
12 *15:9 *254:A1 3.73627e-05
13 *15:9 *19:9 4.8261e-05
14 *88:I *89:I 6.66634e-05
15 *2:7 *15:9 5.25699e-05
16 *14:5 *89:I 4.29636e-06
*RES
1 in[4] *15:9 7.198 
2 *15:9 *283:I 4.728 
3 *15:9 *89:I 16.16 
*END

*D_NET *16 0.0011179
*CONN
*P in[5] I
*I *90:I I *D gf180mcu_fd_sc_mcu7t5v0__antenna
*I *284:I I *D gf180mcu_fd_sc_mcu7t5v0__clkbuf_1
*CAP
1 in[5] 0.000193857
2 *90:I 0.000242798
3 *284:I 6.32504e-05
4 *16:5 0.000499905
5 *90:I *254:A2 1.93526e-05
6 *284:I *254:A2 1.29518e-05
7 *87:I *90:I 3.18726e-05
8 *87:I *16:5 1.34641e-06
9 *13:5 *16:5 5.25699e-05
*RES
1 in[5] *16:5 1.406 
2 *16:5 *284:I 9.38 
3 *16:5 *90:I 10.368 
*END

*D_NET *17 0.00145725
*CONN
*P in[6] I
*I *91:I I *D gf180mcu_fd_sc_mcu7t5v0__antenna
*I *285:I I *D gf180mcu_fd_sc_mcu7t5v0__clkbuf_1
*CAP
1 in[6] 0.000140173
2 *91:I 0.000445335
3 *285:I 0
4 *17:5 0.000585507
5 *91:I *254:A2 0.000123809
6 *91:I *33:9 1.43092e-05
7 *17:5 *33:9 5.50106e-05
8 *87:I *91:I 3.51269e-05
9 *13:5 *91:I 2.97354e-06
10 *13:5 *17:5 5.50106e-05
*RES
1 in[6] *17:5 1.406 
2 *17:5 *285:I 9 
3 *17:5 *91:I 11.66 
*END

*D_NET *18 0.00145672
*CONN
*P in[7] I
*I *92:I I *D gf180mcu_fd_sc_mcu7t5v0__antenna
*I *286:I I *D gf180mcu_fd_sc_mcu7t5v0__clkbuf_1
*CAP
1 in[7] 0.00025786
2 *92:I 0.000230644
3 *286:I 1.1715e-05
4 *18:5 0.000500219
5 *92:I *93:I 0
6 *92:I *255:A1 3.4729e-05
7 *286:I *250:A1 6.73926e-05
8 *86:I *92:I 2.24127e-05
9 *86:I *18:5 3.54047e-05
10 *88:I *92:I 9.01634e-06
11 *88:I *286:I 0.000147313
12 *88:I *18:5 2.99905e-05
13 *12:5 *18:5 5.50106e-05
14 *14:5 *18:5 5.50106e-05
*RES
1 in[7] *18:5 2.318 
2 *18:5 *286:I 9.38 
3 *18:5 *92:I 10.368 
*END

*D_NET *19 0.00189461
*CONN
*P in[8] I
*I *287:I I *D gf180mcu_fd_sc_mcu7t5v0__clkbuf_1
*I *93:I I *D gf180mcu_fd_sc_mcu7t5v0__antenna
*CAP
1 in[8] 0.000336201
2 *287:I 0
3 *93:I 0.000106372
4 *19:9 0.000442572
5 *93:I *255:A1 2.63978e-05
6 *19:9 *250:A1 7.2174e-05
7 *19:9 *250:A3 2.91672e-05
8 *19:9 *252:A1 3.47244e-05
9 *19:9 *254:A1 0.000253849
10 *88:I *93:I 2.20428e-05
11 *89:I *93:I 0.000421621
12 *89:I *19:9 5.43087e-05
13 *92:I *93:I 0
14 *14:5 *19:9 4.69146e-05
15 *15:9 *19:9 4.8261e-05
*RES
1 in[8] *19:9 7.35 
2 *19:9 *93:I 14.64 
3 *19:9 *287:I 4.5 
*END

*D_NET *20 0.00213235
*CONN
*P in[9] I
*I *94:I I *D gf180mcu_fd_sc_mcu7t5v0__antenna
*I *288:I I *D gf180mcu_fd_sc_mcu7t5v0__clkbuf_1
*CAP
1 in[9] 0.000501469
2 *94:I 9.89107e-05
3 *288:I 9.66145e-05
4 *20:9 0.000696994
5 *94:I *259:A2 5.67567e-05
6 *94:I *62:6 0.000379283
7 *288:I *263:A2 0
8 *20:9 out[2] 0.000137155
9 *20:9 *259:A2 1.15244e-05
10 *20:9 *62:6 8.55242e-05
11 *3:9 *20:9 6.81204e-05
*RES
1 in[9] *20:9 4.142 
2 *20:9 *288:I 14.032 
3 *20:9 *94:I 5.716 
*END

*D_NET *21 0.00125856
*CONN
*P out[0] O
*I *298:Z O *D gf180mcu_fd_sc_mcu7t5v0__buf_1
*CAP
1 out[0] 0.000410274
2 *298:Z 0.000410274
3 *97:I out[0] 7.50749e-05
4 *1:13 out[0] 9.89674e-05
5 *3:9 out[0] 0.000263968
*RES
1 *298:Z out[0] 8.414 
*END

*D_NET *22 0.00208473
*CONN
*P out[10] O
*I *299:Z O *D gf180mcu_fd_sc_mcu7t5v0__buf_8
*CAP
1 out[10] 0.000718794
2 *299:Z 0.000718794
3 out[10] out[11] 0.00013827
4 out[10] *273:A1 0
5 *8:9 out[10] 0.000189356
6 *11:9 out[10] 0.000319513
*RES
1 *299:Z out[10] 15.65 
*END

*D_NET *23 0.00253858
*CONN
*P out[11] O
*I *300:Z O *D gf180mcu_fd_sc_mcu7t5v0__buf_8
*CAP
1 out[11] 0.000880674
2 *300:Z 0.000880674
3 out[11] out[9] 0.000442311
4 out[11] *273:A1 9.65981e-05
5 out[11] *274:I 0.000100054
6 out[10] out[11] 0.00013827
7 *11:9 out[11] 0
*RES
1 *300:Z out[11] 15.726 
*END

*D_NET *24 0.00186847
*CONN
*P out[1] O
*I *301:Z O *D gf180mcu_fd_sc_mcu7t5v0__buf_8
*CAP
1 out[1] 0.000801326
2 *301:Z 0.000801326
3 out[1] out[2] 0.000253882
4 out[1] *263:A2 0
5 out[1] *301:I 1.19401e-05
*RES
1 *301:Z out[1] 19.238 
*END

*D_NET *25 0.00236432
*CONN
*P out[2] O
*I *302:Z O *D gf180mcu_fd_sc_mcu7t5v0__buf_8
*CAP
1 out[2] 0.000842008
2 *302:Z 0.000842008
3 out[2] *263:A2 0.000215638
4 out[2] *301:I 0
5 out[2] *62:6 7.36325e-05
6 out[1] out[2] 0.000253882
7 *20:9 out[2] 0.000137155
*RES
1 *302:Z out[2] 20.606 
*END

*D_NET *26 0.00150427
*CONN
*P out[3] O
*I *303:Z O *D gf180mcu_fd_sc_mcu7t5v0__buf_8
*CAP
1 out[3] 0.000530573
2 *303:Z 0.000530573
3 out[3] out[4] 6.0412e-05
4 out[3] *264:I 0.000255019
5 out[3] *276:I 1.46914e-05
6 out[3] *308:I 7.12192e-05
7 *5:9 out[3] 4.17858e-05
*RES
1 *303:Z out[3] 12.686 
*END

*D_NET *27 0.00222655
*CONN
*P out[4] O
*I *304:Z O *D gf180mcu_fd_sc_mcu7t5v0__buf_8
*CAP
1 out[4] 0.000584153
2 *304:Z 0.000584153
3 out[4] out[5] 5.93464e-05
4 out[4] *300:I 0.000569297
5 out[4] *308:I 0.000369192
6 out[3] out[4] 6.0412e-05
*RES
1 *304:Z out[4] 13.674 
*END

*D_NET *28 0.00196775
*CONN
*P out[5] O
*I *305:Z O *D gf180mcu_fd_sc_mcu7t5v0__buf_8
*CAP
1 out[5] 0.000487219
2 *305:Z 0.000487219
3 out[5] out[6] 5.6793e-05
4 out[5] *300:I 3.57099e-05
5 out[5] *308:I 0.000137776
6 out[5] *72:10 0.000703685
7 out[4] out[5] 5.93464e-05
*RES
1 *305:Z out[5] 12.914 
*END

*D_NET *29 0.00175599
*CONN
*P out[6] O
*I *306:Z O *D gf180mcu_fd_sc_mcu7t5v0__buf_8
*CAP
1 out[6] 0.000560285
2 *306:Z 0.000560285
3 out[6] out[8] 0.000137141
4 out[6] *264:I 5.03889e-05
5 out[6] *270:I 1.91917e-06
6 out[6] *272:I 0.000101578
7 out[6] *300:I 4.50449e-05
8 out[6] *308:I 3.54682e-05
9 out[6] *72:10 2.58211e-05
10 out[6] *75:12 0.000181264
11 out[5] out[6] 5.6793e-05
*RES
1 *306:Z out[6] 13.522 
*END

*D_NET *30 0.00162332
*CONN
*P out[7] O
*I *307:Z O *D gf180mcu_fd_sc_mcu7t5v0__buf_8
*CAP
1 out[7] 0.000657372
2 *307:Z 0.000657372
3 out[7] out[8] 7.43386e-06
4 out[7] *268:I 1.46159e-05
5 out[7] *270:I 9.41464e-05
6 out[7] *272:I 0.000139477
7 out[7] *308:I 0
8 *9:5 out[7] 5.29041e-05
*RES
1 *307:Z out[7] 13.142 
*END

*D_NET *31 0.00247483
*CONN
*P out[8] O
*I *308:Z O *D gf180mcu_fd_sc_mcu7t5v0__buf_8
*CAP
1 out[8] 0.000665216
2 *308:Z 0.000665216
3 out[8] *268:I 0.000295285
4 out[8] *274:I 0.000169363
5 out[8] *308:I 0
6 out[8] *75:12 0.000535176
7 out[8] *75:18 0
8 out[6] out[8] 0.000137141
9 out[7] out[8] 7.43386e-06
*RES
1 *308:Z out[8] 15.346 
*END

*D_NET *32 0.0020144
*CONN
*P out[9] O
*I *309:Z O *D gf180mcu_fd_sc_mcu7t5v0__buf_8
*CAP
1 out[9] 0.00060194
2 *309:Z 0.00060194
3 out[9] *273:A1 0.000266957
4 out[11] out[9] 0.000442311
5 *10:9 out[9] 0.00010125
6 *11:9 out[9] 0
*RES
1 *309:Z out[9] 13.826 
*END

*D_NET *33 0.00199359
*CONN
*P rst_n I
*I *96:I I *D gf180mcu_fd_sc_mcu7t5v0__antenna
*I *290:I I *D gf180mcu_fd_sc_mcu7t5v0__clkbuf_1
*CAP
1 rst_n 0.00034282
2 *96:I 0.00014014
3 *290:I 5.29048e-05
4 *33:9 0.000535864
5 *96:I *253:A2 0
6 *290:I *254:A2 2.03665e-05
7 *33:9 *251:A1 9.88736e-06
8 *33:9 *251:A2 7.14125e-05
9 *33:9 *254:A2 0.000260709
10 *91:I *33:9 1.43092e-05
11 *95:I *33:9 0.000432994
12 *2:7 *33:9 5.71705e-05
13 *17:5 *33:9 5.50106e-05
*RES
1 rst_n *33:9 7.958 
2 *33:9 *290:I 4.88 
3 *33:9 *96:I 5.336 
*END

*D_NET *36 0.000357849
*CONN
*I *253:A1 I *D gf180mcu_fd_sc_mcu7t5v0__xor3_1
*I *250:Z O *D gf180mcu_fd_sc_mcu7t5v0__xor3_1
*CAP
1 *253:A1 0.00016983
2 *250:Z 0.00016983
3 *253:A1 *253:A3 1.81888e-05
*RES
1 *250:Z *253:A1 10.064 
*END

*D_NET *37 0.000534264
*CONN
*I *253:A2 I *D gf180mcu_fd_sc_mcu7t5v0__xor3_1
*I *251:Z O *D gf180mcu_fd_sc_mcu7t5v0__xor2_1
*CAP
1 *253:A2 0.000228268
2 *251:Z 0.000228268
3 *253:A2 *250:A3 0
4 *253:A2 *251:A1 7.77273e-05
5 *96:I *253:A2 0
*RES
1 *251:Z *253:A2 10.672 
*END

*D_NET *38 0.000573761
*CONN
*I *253:A3 I *D gf180mcu_fd_sc_mcu7t5v0__xor3_1
*I *252:Z O *D gf180mcu_fd_sc_mcu7t5v0__xor2_1
*CAP
1 *253:A3 8.8149e-05
2 *252:Z 8.8149e-05
3 *253:A3 *252:A2 0.000379274
4 *253:A1 *253:A3 1.81888e-05
*RES
1 *252:Z *253:A3 9.988 
*END

*D_NET *39 0.000571308
*CONN
*I *255:A2 I *D gf180mcu_fd_sc_mcu7t5v0__xor3_1
*I *253:Z O *D gf180mcu_fd_sc_mcu7t5v0__xor3_1
*CAP
1 *255:A2 9.1484e-05
2 *253:Z 9.1484e-05
3 *255:A2 *252:A2 1.91917e-06
4 *255:A2 *255:A1 0.000386421
*RES
1 *253:Z *255:A2 9.988 
*END

*D_NET *40 0.000406495
*CONN
*I *255:A3 I *D gf180mcu_fd_sc_mcu7t5v0__xor3_1
*I *254:Z O *D gf180mcu_fd_sc_mcu7t5v0__xor2_1
*CAP
1 *255:A3 0.000155328
2 *254:Z 0.000155328
3 *255:A3 *254:A2 0
4 *255:A3 *256:I 9.58397e-05
*RES
1 *254:Z *255:A3 10.14 
*END

*D_NET *41 0.00130176
*CONN
*I *256:I I *D gf180mcu_fd_sc_mcu7t5v0__clkbuf_2
*I *255:Z O *D gf180mcu_fd_sc_mcu7t5v0__xor3_1
*CAP
1 *256:I 0.00043746
2 *255:Z 0.00043746
3 *256:I *254:A1 0
4 *256:I *258:I 0.000179609
5 *256:I *259:A2 1.02823e-05
6 *256:I *263:A1 0
7 *256:I *298:I 1.28529e-05
8 *256:I *302:I 0.000128257
9 *255:A3 *256:I 9.58397e-05
*RES
1 *255:Z *256:I 12.648 
*END

*D_NET *42 0.000586772
*CONN
*I *258:I I *D gf180mcu_fd_sc_mcu7t5v0__clkbuf_1
*I *257:Z O *D gf180mcu_fd_sc_mcu7t5v0__xor2_1
*CAP
1 *258:I 0.000203581
2 *257:Z 0.000203581
3 *258:I *257:A1 0
4 *258:I *263:A2 0
5 *256:I *258:I 0.000179609
*RES
1 *257:Z *258:I 10.672 
*END

*D_NET *43 0.000414131
*CONN
*I *260:I I *D gf180mcu_fd_sc_mcu7t5v0__clkbuf_2
*I *259:Z O *D gf180mcu_fd_sc_mcu7t5v0__xor3_1
*CAP
1 *260:I 0.000207066
2 *259:Z 0.000207066
*RES
1 *259:Z *260:I 10.292 
*END

*D_NET *44 0.000739325
*CONN
*I *262:I I *D gf180mcu_fd_sc_mcu7t5v0__clkbuf_1
*I *261:Z O *D gf180mcu_fd_sc_mcu7t5v0__xor2_1
*CAP
1 *262:I 0.000295929
2 *261:Z 0.000295929
3 *262:I *261:A2 7.57844e-05
4 *262:I *304:I 1.02578e-05
5 *262:I *70:6 6.14251e-05
*RES
1 *261:Z *262:I 10.9 
*END

*D_NET *45 0.00481011
*CONN
*I *264:I I *D gf180mcu_fd_sc_mcu7t5v0__clkbuf_2
*I *263:Z O *D gf180mcu_fd_sc_mcu7t5v0__xor3_1
*CAP
1 *264:I 0.000485138
2 *263:Z 0.000485138
3 *264:I *263:A1 0.000215472
4 *264:I *263:A3 0.000269848
5 *264:I *270:I 0.000768328
6 *264:I *276:I 0.00177185
7 *264:I *300:I 8.45216e-05
8 *264:I *306:I 0
9 *264:I *308:I 0.000424397
10 out[3] *264:I 0.000255019
11 out[6] *264:I 5.03889e-05
*RES
1 *263:Z *264:I 25.752 
*END

*D_NET *46 0.000545374
*CONN
*I *266:I I *D gf180mcu_fd_sc_mcu7t5v0__clkbuf_1
*I *265:Z O *D gf180mcu_fd_sc_mcu7t5v0__xor2_1
*CAP
1 *266:I 0.000220539
2 *265:Z 0.000220539
3 *266:I *267:A1 2.9015e-05
4 *266:I *267:A3 3.79283e-05
5 *266:I *276:I 3.73535e-05
*RES
1 *265:Z *266:I 19.444 
*END

*D_NET *47 0.00187912
*CONN
*I *268:I I *D gf180mcu_fd_sc_mcu7t5v0__clkbuf_2
*I *267:Z O *D gf180mcu_fd_sc_mcu7t5v0__xor3_1
*CAP
1 *268:I 0.000707112
2 *267:Z 0.000707112
3 *268:I *265:A1 8.55242e-05
4 *268:I *267:A3 2.10669e-05
5 *268:I *269:A1 0
6 *268:I *269:A2 2.22758e-05
7 *268:I *270:I 0
8 *268:I *75:18 0
9 *268:I *79:12 2.6126e-05
10 out[7] *268:I 1.46159e-05
11 out[8] *268:I 0.000295285
12 *11:9 *268:I 0
*RES
1 *267:Z *268:I 23.016 
*END

*D_NET *48 0.00643153
*CONN
*I *270:I I *D gf180mcu_fd_sc_mcu7t5v0__clkbuf_1
*I *269:Z O *D gf180mcu_fd_sc_mcu7t5v0__xor2_1
*CAP
1 *270:I 0.000975053
2 *269:Z 0.000975053
3 *270:I *272:I 0.000959939
4 *270:I *274:I 0.000913504
5 *270:I *276:I 8.55327e-05
6 *270:I *299:I 3.07734e-05
7 *270:I *300:I 0.000624563
8 *270:I *308:I 0.000145528
9 *270:I *75:12 0.000493324
10 out[6] *270:I 1.91917e-06
11 out[7] *270:I 9.41464e-05
12 *264:I *270:I 0.000768328
13 *268:I *270:I 0
14 *5:9 *270:I 0.000260973
15 *9:5 *270:I 7.92072e-05
16 *11:9 *270:I 2.36862e-05
*RES
1 *269:Z *270:I 29.628 
*END

*D_NET *49 0.0055996
*CONN
*I *272:I I *D gf180mcu_fd_sc_mcu7t5v0__clkbuf_2
*I *271:Z O *D gf180mcu_fd_sc_mcu7t5v0__xor3_1
*CAP
1 *272:I 0.000809127
2 *271:Z 0.000809127
3 *272:I *271:A3 0.000222333
4 *272:I *273:A2 2.6126e-05
5 *272:I *274:I 8.67574e-05
6 *272:I *300:I 2.68222e-05
7 *272:I *306:I 0
8 *272:I *308:I 0
9 *272:I *72:10 0.00157576
10 *272:I *75:12 5.235e-05
11 *272:I *75:18 0.000785626
12 *272:I *77:10 4.58601e-06
13 out[6] *272:I 0.000101578
14 out[7] *272:I 0.000139477
15 *270:I *272:I 0.000959939
*RES
1 *271:Z *272:I 27.576 
*END

*D_NET *50 0.00315741
*CONN
*I *274:I I *D gf180mcu_fd_sc_mcu7t5v0__clkbuf_1
*I *273:Z O *D gf180mcu_fd_sc_mcu7t5v0__xor2_1
*CAP
1 *274:I 0.000716765
2 *273:Z 0.000716765
3 *274:I *269:A2 0
4 *274:I *273:A2 9.65141e-05
5 *274:I *299:I 8.66071e-05
6 *274:I *308:I 0
7 out[11] *274:I 0.000100054
8 out[8] *274:I 0.000169363
9 *270:I *274:I 0.000913504
10 *272:I *274:I 8.67574e-05
11 *9:5 *274:I 0.00027108
*RES
1 *273:Z *274:I 24.916 
*END

*D_NET *51 0.00656853
*CONN
*I *276:I I *D gf180mcu_fd_sc_mcu7t5v0__clkbuf_1
*I *275:Z O *D gf180mcu_fd_sc_mcu7t5v0__xor3_1
*CAP
1 *276:I 0.00167124
2 *275:Z 0.00167124
3 *276:I *257:A1 0
4 *276:I *257:A2 0
5 *276:I *261:A1 0
6 *276:I *263:A1 0.000530267
7 *276:I *263:A3 2.17248e-05
8 *276:I *267:A3 6.63909e-05
9 *276:I *269:A2 0
10 *276:I *271:A2 4.30127e-05
11 *276:I *271:A3 5.06913e-05
12 *276:I *275:A2 0.000185257
13 *276:I *302:I 0
14 *276:I *306:I 0.000264169
15 *276:I *308:I 1.97747e-05
16 *276:I *74:16 8.92063e-06
17 *276:I *79:12 0.000124923
18 out[3] *276:I 1.46914e-05
19 *264:I *276:I 0.00177185
20 *266:I *276:I 3.73535e-05
21 *270:I *276:I 8.55327e-05
22 *296:I *276:I 1.49066e-06
23 *4:9 *276:I 0
*RES
1 *275:Z *276:I 31.908 
*END

*D_NET *52 0.00082447
*CONN
*I *251:A1 I *D gf180mcu_fd_sc_mcu7t5v0__xor2_1
*I *278:Z O *D gf180mcu_fd_sc_mcu7t5v0__clkbuf_1
*CAP
1 *251:A1 0.000210968
2 *278:Z 0.000210968
3 *251:A1 *250:A2 4.10312e-05
4 *251:A1 *251:A2 7.83779e-05
5 *251:A1 *252:A2 0.000195511
6 *253:A2 *251:A1 7.77273e-05
7 *33:9 *251:A1 9.88736e-06
*RES
1 *278:Z *251:A1 11.128 
*END

*D_NET *53 0.000889164
*CONN
*I *275:A2 I *D gf180mcu_fd_sc_mcu7t5v0__xor3_1
*I *279:Z O *D gf180mcu_fd_sc_mcu7t5v0__clkbuf_1
*CAP
1 *275:A2 0.000239049
2 *279:Z 0.000239049
3 *275:A2 *267:A2 0
4 *275:A2 *275:A3 3.37994e-05
5 *275:A2 *79:12 5.01959e-06
6 *103:I *275:A2 4.08987e-05
7 *276:I *275:A2 0.000185257
8 *296:I *275:A2 1.91917e-06
9 *9:5 *275:A2 4.98189e-05
10 *10:9 *275:A2 9.43529e-05
*RES
1 *279:Z *275:A2 20.128 
*END

*D_NET *54 0.00174957
*CONN
*I *250:A1 I *D gf180mcu_fd_sc_mcu7t5v0__xor3_1
*I *280:Z O *D gf180mcu_fd_sc_mcu7t5v0__clkbuf_1
*CAP
1 *250:A1 0.000413088
2 *280:Z 0.000413088
3 *250:A1 *250:A2 3.00299e-05
4 *250:A1 *250:A3 4.41604e-05
5 *250:A1 *252:A1 0.000474983
6 *250:A1 *254:A1 9.58084e-05
7 *88:I *250:A1 0.000124364
8 *282:I *250:A1 1.44832e-05
9 *286:I *250:A1 6.73926e-05
10 *19:9 *250:A1 7.2174e-05
*RES
1 *280:Z *250:A1 12.8 
*END

*D_NET *55 0.00264264
*CONN
*I *250:A2 I *D gf180mcu_fd_sc_mcu7t5v0__xor3_1
*I *281:Z O *D gf180mcu_fd_sc_mcu7t5v0__clkbuf_1
*CAP
1 *250:A2 0.000429777
2 *281:Z 0.000429777
3 *250:A2 *252:A1 9.26705e-05
4 *250:A2 *252:A2 0.00059563
5 *250:A2 *254:A2 0.000487635
6 *95:I *250:A2 0.000310356
7 *250:A1 *250:A2 3.00299e-05
8 *251:A1 *250:A2 4.10312e-05
9 *278:I *250:A2 8.55242e-05
10 *281:I *250:A2 4.27914e-05
11 *15:9 *250:A2 9.74134e-05
*RES
1 *281:Z *250:A2 13.94 
*END

*D_NET *56 0.00388679
*CONN
*I *254:A1 I *D gf180mcu_fd_sc_mcu7t5v0__xor2_1
*I *282:Z O *D gf180mcu_fd_sc_mcu7t5v0__clkbuf_1
*CAP
1 *254:A1 0.00104979
2 *282:Z 0.00104979
3 *254:A1 *252:A1 0.000408144
4 *254:A1 *255:A1 0
5 *89:I *254:A1 0.000899798
6 *250:A1 *254:A1 9.58084e-05
7 *256:I *254:A1 0
8 *282:I *254:A1 5.4883e-05
9 *283:I *254:A1 3.73535e-05
10 *15:9 *254:A1 3.73627e-05
11 *19:9 *254:A1 0.000253849
*RES
1 *282:Z *254:A1 26.816 
*END

*D_NET *57 0.00241396
*CONN
*I *252:A1 I *D gf180mcu_fd_sc_mcu7t5v0__xor2_1
*I *283:Z O *D gf180mcu_fd_sc_mcu7t5v0__clkbuf_1
*CAP
1 *252:A1 0.000677678
2 *283:Z 0.000677678
3 *252:A1 *252:A2 0
4 *250:A1 *252:A1 0.000474983
5 *250:A2 *252:A1 9.26705e-05
6 *254:A1 *252:A1 0.000408144
7 *15:9 *252:A1 4.80781e-05
8 *19:9 *252:A1 3.47244e-05
*RES
1 *283:Z *252:A1 23.016 
*END

*D_NET *58 0.00395988
*CONN
*I *254:A2 I *D gf180mcu_fd_sc_mcu7t5v0__xor2_1
*I *284:Z O *D gf180mcu_fd_sc_mcu7t5v0__clkbuf_1
*CAP
1 *254:A2 0.00112984
2 *284:Z 0.00112984
3 *254:A2 *251:A2 0.000255722
4 *254:A2 *252:A2 0.00026286
5 *254:A2 *255:A1 3.08744e-05
6 *87:I *254:A2 2.22758e-05
7 *90:I *254:A2 1.93526e-05
8 *91:I *254:A2 0.000123809
9 *95:I *254:A2 0.000203645
10 *250:A2 *254:A2 0.000487635
11 *255:A3 *254:A2 0
12 *284:I *254:A2 1.29518e-05
13 *290:I *254:A2 2.03665e-05
14 *33:9 *254:A2 0.000260709
*RES
1 *284:Z *254:A2 27.12 
*END

*D_NET *59 0.00313171
*CONN
*I *252:A2 I *D gf180mcu_fd_sc_mcu7t5v0__xor2_1
*I *285:Z O *D gf180mcu_fd_sc_mcu7t5v0__clkbuf_1
*CAP
1 *252:A2 0.000787541
2 *285:Z 0.000787541
3 *252:A2 *251:A2 4.21224e-05
4 *252:A2 *255:A1 2.73945e-05
5 *95:I *252:A2 5.19125e-05
6 *250:A2 *252:A2 0.00059563
7 *251:A1 *252:A2 0.000195511
8 *252:A1 *252:A2 0
9 *253:A3 *252:A2 0.000379274
10 *254:A2 *252:A2 0.00026286
11 *255:A2 *252:A2 1.91917e-06
*RES
1 *285:Z *252:A2 24.46 
*END

*D_NET *60 0.00282388
*CONN
*I *255:A1 I *D gf180mcu_fd_sc_mcu7t5v0__xor3_1
*I *286:Z O *D gf180mcu_fd_sc_mcu7t5v0__clkbuf_1
*CAP
1 *255:A1 0.00114766
2 *286:Z 0.00114766
3 *89:I *255:A1 2.2746e-05
4 *92:I *255:A1 3.4729e-05
5 *93:I *255:A1 2.63978e-05
6 *252:A2 *255:A1 2.73945e-05
7 *254:A1 *255:A1 0
8 *254:A2 *255:A1 3.08744e-05
9 *255:A2 *255:A1 0.000386421
*RES
1 *286:Z *255:A1 25.448 
*END

*D_NET *61 0.000810982
*CONN
*I *250:A3 I *D gf180mcu_fd_sc_mcu7t5v0__xor3_1