*SPEF "ieee 1481-1999"
*DESIGN "loopback9"
*DATE "11:11:11 Fri 11 11, 1111"
*VENDOR "OpenRCX"
*PROGRAM "Parallel Extraction"
*VERSION "1.0"
*DESIGN_FLOW "NAME_SCOPE LOCAL" "PIN_CAP NONE"
*DIVIDER /
*DELIMITER :
*BUS_DELIMITER []
*T_UNIT 1 NS
*C_UNIT 1 PF
*R_UNIT 1 OHM
*L_UNIT 1 HENRY

*NAME_MAP
*1 clk
*2 in[0]
*3 in[10]
*4 in[11]
*5 in[12]
*6 in[13]
*7 in[14]
*8 in[15]
*9 in[16]
*10 in[17]
*11 in[1]
*12 in[2]
*13 in[3]
*14 in[4]
*15 in[5]
*16 in[6]
*17 in[7]
*18 in[8]
*19 in[9]
*20 out[0]
*21 out[10]
*22 out[11]
*23 out[1]
*24 out[2]
*25 out[3]
*26 out[4]
*27 out[5]
*28 out[6]
*29 out[7]
*30 out[8]
*31 out[9]
*32 rst_n
*35 _00_
*36 _01_
*37 _02_
*38 _03_
*39 _04_
*40 _05_
*41 _06_
*42 _07_
*43 _08_
*44 _09_
*45 _10_
*46 _11_
*47 _12_
*48 _13_
*49 _14_
*50 _15_
*51 net1
*52 net10
*53 net11
*54 net12
*55 net13
*56 net14
*57 net15
*58 net16
*59 net17
*60 net18
*61 net19
*62 net2
*63 net20
*64 net21
*65 net22
*66 net23
*67 net24
*68 net25
*69 net26
*70 net27
*71 net28
*72 net29
*73 net3
*74 net30
*75 net31
*76 net4
*77 net5
*78 net6
*79 net7
*80 net8
*81 net9
*82 ANTENNA__18__A2
*83 ANTENNA__20__A2
*84 ANTENNA__23__A1
*85 ANTENNA__25__A1
*86 ANTENNA__27__A1
*87 ANTENNA__29__A1
*88 ANTENNA__29__A2
*89 ANTENNA__31__A1
*90 ANTENNA__31__A2
*91 ANTENNA__33__A1
*92 ANTENNA__33__A2
*93 ANTENNA__33__A3
*94 ANTENNA__43__I
*95 ANTENNA_input10_I
*96 ANTENNA_input11_I
*97 ANTENNA_input12_I
*98 ANTENNA_input13_I
*99 ANTENNA_input14_I
*100 ANTENNA_input15_I
*101 ANTENNA_input16_I
*102 ANTENNA_input17_I
*103 ANTENNA_input18_I
*104 ANTENNA_input19_I
*105 ANTENNA_input1_I
*106 ANTENNA_input2_I
*107 ANTENNA_input3_I
*108 ANTENNA_input4_I
*109 ANTENNA_input5_I
*110 ANTENNA_input6_I
*111 ANTENNA_input7_I
*112 ANTENNA_input8_I
*113 ANTENNA_input9_I
*114 ANTENNA_output26_I
*115 ANTENNA_output27_I
*116 FILLER_0_0_104
*117 FILLER_0_0_138
*118 FILLER_0_0_172
*119 FILLER_0_0_2
*120 FILLER_0_0_206
*121 FILLER_0_0_240
*122 FILLER_0_0_274
*123 FILLER_0_0_308
*124 FILLER_0_0_324
*125 FILLER_0_0_328
*126 FILLER_0_0_330
*127 FILLER_0_0_36
*128 FILLER_0_0_70
*129 FILLER_0_10_101
*130 FILLER_0_10_107
*131 FILLER_0_10_171
*132 FILLER_0_10_177
*133 FILLER_0_10_2
*134 FILLER_0_10_241
*135 FILLER_0_10_247
*136 FILLER_0_10_311
*137 FILLER_0_10_317
*138 FILLER_0_10_325
*139 FILLER_0_10_329
*140 FILLER_0_10_34
*141 FILLER_0_10_37
*142 FILLER_0_11_136
*143 FILLER_0_11_142
*144 FILLER_0_11_2
*145 FILLER_0_11_206
*146 FILLER_0_11_212
*147 FILLER_0_11_276
*148 FILLER_0_11_282
*149 FILLER_0_11_314
*150 FILLER_0_11_330
*151 FILLER_0_11_66
*152 FILLER_0_11_72
*153 FILLER_0_12_101
*154 FILLER_0_12_107
*155 FILLER_0_12_171
*156 FILLER_0_12_177
*157 FILLER_0_12_2
*158 FILLER_0_12_241
*159 FILLER_0_12_247
*160 FILLER_0_12_311
*161 FILLER_0_12_317
*162 FILLER_0_12_325
*163 FILLER_0_12_329
*164 FILLER_0_12_34
*165 FILLER_0_12_37
*166 FILLER_0_13_136
*167 FILLER_0_13_142
*168 FILLER_0_13_2
*169 FILLER_0_13_206
*170 FILLER_0_13_212
*171 FILLER_0_13_276
*172 FILLER_0_13_282
*173 FILLER_0_13_314
*174 FILLER_0_13_330
*175 FILLER_0_13_66
*176 FILLER_0_13_72
*177 FILLER_0_14_101
*178 FILLER_0_14_107
*179 FILLER_0_14_171
*180 FILLER_0_14_177
*181 FILLER_0_14_2
*182 FILLER_0_14_241
*183 FILLER_0_14_247
*184 FILLER_0_14_311
*185 FILLER_0_14_317
*186 FILLER_0_14_325
*187 FILLER_0_14_329
*188 FILLER_0_14_34
*189 FILLER_0_14_37
*190 FILLER_0_15_12
*191 FILLER_0_15_136
*192 FILLER_0_15_142
*193 FILLER_0_15_206
*194 FILLER_0_15_212
*195 FILLER_0_15_276
*196 FILLER_0_15_282
*197 FILLER_0_15_298
*198 FILLER_0_15_302
*199 FILLER_0_15_304
*200 FILLER_0_15_44
*201 FILLER_0_15_60
*202 FILLER_0_15_68
*203 FILLER_0_15_72
*204 FILLER_0_15_8
*205 FILLER_0_16_101
*206 FILLER_0_16_107
*207 FILLER_0_16_171
*208 FILLER_0_16_177
*209 FILLER_0_16_241
*210 FILLER_0_16_247
*211 FILLER_0_16_28
*212 FILLER_0_16_311
*213 FILLER_0_16_317
*214 FILLER_0_16_32
*215 FILLER_0_16_321
*216 FILLER_0_16_34
*217 FILLER_0_16_37
*218 FILLER_0_17_12
*219 FILLER_0_17_136
*220 FILLER_0_17_142
*221 FILLER_0_17_16
*222 FILLER_0_17_206
*223 FILLER_0_17_212
*224 FILLER_0_17_276
*225 FILLER_0_17_282
*226 FILLER_0_17_298
*227 FILLER_0_17_302
*228 FILLER_0_17_48
*229 FILLER_0_17_64
*230 FILLER_0_17_68
*231 FILLER_0_17_72
*232 FILLER_0_17_8
*233 FILLER_0_18_101
*234 FILLER_0_18_107
*235 FILLER_0_18_14
*236 FILLER_0_18_171
*237 FILLER_0_18_177
*238 FILLER_0_18_18
*239 FILLER_0_18_241
*240 FILLER_0_18_247
*241 FILLER_0_18_279
*242 FILLER_0_18_287
*243 FILLER_0_18_317
*244 FILLER_0_18_325
*245 FILLER_0_18_329
*246 FILLER_0_18_34
*247 FILLER_0_18_37
*248 FILLER_0_19_104
*249 FILLER_0_19_107
*250 FILLER_0_19_115
*251 FILLER_0_19_119
*252 FILLER_0_19_12
*253 FILLER_0_19_127
*254 FILLER_0_19_131
*255 FILLER_0_19_139
*256 FILLER_0_19_142
*257 FILLER_0_19_144
*258 FILLER_0_19_147
*259 FILLER_0_19_151
*260 FILLER_0_19_155
*261 FILLER_0_19_187
*262 FILLER_0_19_193
*263 FILLER_0_19_199
*264 FILLER_0_19_207
*265 FILLER_0_19_209
*266 FILLER_0_19_212
*267 FILLER_0_19_276
*268 FILLER_0_19_282
*269 FILLER_0_19_298
*270 FILLER_0_19_302
*271 FILLER_0_19_304
*272 FILLER_0_19_44
*273 FILLER_0_19_60
*274 FILLER_0_19_68
*275 FILLER_0_19_72
*276 FILLER_0_19_8
*277 FILLER_0_1_136
*278 FILLER_0_1_142
*279 FILLER_0_1_2
*280 FILLER_0_1_206
*281 FILLER_0_1_212
*282 FILLER_0_1_276
*283 FILLER_0_1_282
*284 FILLER_0_1_314
*285 FILLER_0_1_330
*286 FILLER_0_1_66
*287 FILLER_0_1_72
*288 FILLER_0_20_167
*289 FILLER_0_20_189
*290 FILLER_0_20_230
*291 FILLER_0_20_238
*292 FILLER_0_20_242
*293 FILLER_0_20_244
*294 FILLER_0_20_247
*295 FILLER_0_20_28
*296 FILLER_0_20_311
*297 FILLER_0_20_317
*298 FILLER_0_20_32
*299 FILLER_0_20_325
*300 FILLER_0_20_34
*301 FILLER_0_20_37
*302 FILLER_0_20_69
*303 FILLER_0_20_85
*304 FILLER_0_21_12
*305 FILLER_0_21_139
*306 FILLER_0_21_148
*307 FILLER_0_21_195
*308 FILLER_0_21_208
*309 FILLER_0_21_235
*310 FILLER_0_21_267
*311 FILLER_0_21_275
*312 FILLER_0_21_279
*313 FILLER_0_21_282
*314 FILLER_0_21_314
*315 FILLER_0_21_322
*316 FILLER_0_21_44
*317 FILLER_0_21_60
*318 FILLER_0_21_68
*319 FILLER_0_21_72
*320 FILLER_0_21_8
*321 FILLER_0_21_88
*322 FILLER_0_22_107
*323 FILLER_0_22_12
*324 FILLER_0_22_123
*325 FILLER_0_22_127
*326 FILLER_0_22_148
*327 FILLER_0_22_152
*328 FILLER_0_22_168
*329 FILLER_0_22_172
*330 FILLER_0_22_174
*331 FILLER_0_22_191
*332 FILLER_0_22_209
*333 FILLER_0_22_213
*334 FILLER_0_22_227
*335 FILLER_0_22_235
*336 FILLER_0_22_243
*337 FILLER_0_22_247
*338 FILLER_0_22_28
*339 FILLER_0_22_311
*340 FILLER_0_22_317
*341 FILLER_0_22_32
*342 FILLER_0_22_34
*343 FILLER_0_22_37
*344 FILLER_0_22_69
*345 FILLER_0_22_8
*346 FILLER_0_22_85
*347 FILLER_0_23_136
*348 FILLER_0_23_142
*349 FILLER_0_23_174
*350 FILLER_0_23_190
*351 FILLER_0_23_198
*352 FILLER_0_23_201
*353 FILLER_0_23_209
*354 FILLER_0_23_212
*355 FILLER_0_23_276
*356 FILLER_0_23_28
*357 FILLER_0_23_282
*358 FILLER_0_23_298
*359 FILLER_0_23_302
*360 FILLER_0_23_304
*361 FILLER_0_23_60
*362 FILLER_0_23_68
*363 FILLER_0_23_72
*364 FILLER_0_24_101
*365 FILLER_0_24_107
*366 FILLER_0_24_171
*367 FILLER_0_24_177
*368 FILLER_0_24_241
*369 FILLER_0_24_247
*370 FILLER_0_24_279
*371 FILLER_0_24_28
*372 FILLER_0_24_287
*373 FILLER_0_24_317
*374 FILLER_0_24_32
*375 FILLER_0_24_321
*376 FILLER_0_24_34
*377 FILLER_0_24_37
*378 FILLER_0_25_136
*379 FILLER_0_25_14
*380 FILLER_0_25_142
*381 FILLER_0_25_18
*382 FILLER_0_25_206
*383 FILLER_0_25_212
*384 FILLER_0_25_276
*385 FILLER_0_25_282
*386 FILLER_0_25_298
*387 FILLER_0_25_302
*388 FILLER_0_25_304
*389 FILLER_0_25_50
*390 FILLER_0_25_66
*391 FILLER_0_25_72
*392 FILLER_0_26_101
*393 FILLER_0_26_107
*394 FILLER_0_26_12
*395 FILLER_0_26_16
*396 FILLER_0_26_171
*397 FILLER_0_26_177
*398 FILLER_0_26_241
*399 FILLER_0_26_247
*400 FILLER_0_26_311
*401 FILLER_0_26_317
*402 FILLER_0_26_32
*403 FILLER_0_26_325
*404 FILLER_0_26_329
*405 FILLER_0_26_34
*406 FILLER_0_26_37
*407 FILLER_0_26_8
*408 FILLER_0_27_12
*409 FILLER_0_27_136
*410 FILLER_0_27_142
*411 FILLER_0_27_206
*412 FILLER_0_27_212
*413 FILLER_0_27_276
*414 FILLER_0_27_282
*415 FILLER_0_27_314
*416 FILLER_0_27_322
*417 FILLER_0_27_44
*418 FILLER_0_27_60
*419 FILLER_0_27_68
*420 FILLER_0_27_72
*421 FILLER_0_27_8
*422 FILLER_0_28_101
*423 FILLER_0_28_107
*424 FILLER_0_28_12
*425 FILLER_0_28_171
*426 FILLER_0_28_177
*427 FILLER_0_28_241
*428 FILLER_0_28_247
*429 FILLER_0_28_28
*430 FILLER_0_28_311
*431 FILLER_0_28_317
*432 FILLER_0_28_32
*433 FILLER_0_28_325
*434 FILLER_0_28_329
*435 FILLER_0_28_34
*436 FILLER_0_28_37
*437 FILLER_0_28_8
*438 FILLER_0_29_12
*439 FILLER_0_29_136
*440 FILLER_0_29_142
*441 FILLER_0_29_206
*442 FILLER_0_29_212
*443 FILLER_0_29_276
*444 FILLER_0_29_282
*445 FILLER_0_29_314
*446 FILLER_0_29_330
*447 FILLER_0_29_44
*448 FILLER_0_29_60
*449 FILLER_0_29_68
*450 FILLER_0_29_72
*451 FILLER_0_29_8
*452 FILLER_0_2_101
*453 FILLER_0_2_107
*454 FILLER_0_2_171
*455 FILLER_0_2_177
*456 FILLER_0_2_2
*457 FILLER_0_2_241
*458 FILLER_0_2_247
*459 FILLER_0_2_311
*460 FILLER_0_2_317
*461 FILLER_0_2_325
*462 FILLER_0_2_329
*463 FILLER_0_2_34
*464 FILLER_0_2_37
*465 FILLER_0_30_101
*466 FILLER_0_30_107
*467 FILLER_0_30_171
*468 FILLER_0_30_177
*469 FILLER_0_30_2
*470 FILLER_0_30_241
*471 FILLER_0_30_247
*472 FILLER_0_30_311
*473 FILLER_0_30_317
*474 FILLER_0_30_325
*475 FILLER_0_30_329
*476 FILLER_0_30_34
*477 FILLER_0_30_37
*478 FILLER_0_31_136
*479 FILLER_0_31_142
*480 FILLER_0_31_2
*481 FILLER_0_31_206
*482 FILLER_0_31_212
*483 FILLER_0_31_276
*484 FILLER_0_31_282
*485 FILLER_0_31_314
*486 FILLER_0_31_330
*487 FILLER_0_31_66
*488 FILLER_0_31_72
*489 FILLER_0_32_101
*490 FILLER_0_32_107
*491 FILLER_0_32_171
*492 FILLER_0_32_177
*493 FILLER_0_32_2
*494 FILLER_0_32_241
*495 FILLER_0_32_247
*496 FILLER_0_32_311
*497 FILLER_0_32_317
*498 FILLER_0_32_325
*499 FILLER_0_32_329
*500 FILLER_0_32_34
*501 FILLER_0_32_37
*502 FILLER_0_33_136
*503 FILLER_0_33_142
*504 FILLER_0_33_2
*505 FILLER_0_33_206
*506 FILLER_0_33_212
*507 FILLER_0_33_276
*508 FILLER_0_33_282
*509 FILLER_0_33_314
*510 FILLER_0_33_330
*511 FILLER_0_33_66
*512 FILLER_0_33_72
*513 FILLER_0_34_101
*514 FILLER_0_34_107
*515 FILLER_0_34_171
*516 FILLER_0_34_177
*517 FILLER_0_34_2
*518 FILLER_0_34_241
*519 FILLER_0_34_247
*520 FILLER_0_34_311
*521 FILLER_0_34_317
*522 FILLER_0_34_325
*523 FILLER_0_34_329
*524 FILLER_0_34_34
*525 FILLER_0_34_37
*526 FILLER_0_35_136
*527 FILLER_0_35_142
*528 FILLER_0_35_2
*529 FILLER_0_35_206
*530 FILLER_0_35_212
*531 FILLER_0_35_276
*532 FILLER_0_35_282
*533 FILLER_0_35_314
*534 FILLER_0_35_330
*535 FILLER_0_35_66
*536 FILLER_0_35_72
*537 FILLER_0_36_101
*538 FILLER_0_36_107
*539 FILLER_0_36_171
*540 FILLER_0_36_177
*541 FILLER_0_36_2
*542 FILLER_0_36_241
*543 FILLER_0_36_247
*544 FILLER_0_36_311
*545 FILLER_0_36_317
*546 FILLER_0_36_325
*547 FILLER_0_36_329
*548 FILLER_0_36_34
*549 FILLER_0_36_37
*550 FILLER_0_37_136
*551 FILLER_0_37_142
*552 FILLER_0_37_2
*553 FILLER_0_37_206
*554 FILLER_0_37_212
*555 FILLER_0_37_276
*556 FILLER_0_37_282
*557 FILLER_0_37_314
*558 FILLER_0_37_330
*559 FILLER_0_37_66
*560 FILLER_0_37_72
*561 FILLER_0_38_101
*562 FILLER_0_38_107
*563 FILLER_0_38_139
*564 FILLER_0_38_155
*565 FILLER_0_38_159
*566 FILLER_0_38_166
*567 FILLER_0_38_170
*568 FILLER_0_38_174
*569 FILLER_0_38_177
*570 FILLER_0_38_2
*571 FILLER_0_38_241
*572 FILLER_0_38_247
*573 FILLER_0_38_311
*574 FILLER_0_38_317
*575 FILLER_0_38_325
*576 FILLER_0_38_329
*577 FILLER_0_38_34
*578 FILLER_0_38_37
*579 FILLER_0_39_136
*580 FILLER_0_39_142
*581 FILLER_0_39_2
*582 FILLER_0_39_206
*583 FILLER_0_39_212
*584 FILLER_0_39_276
*585 FILLER_0_39_282
*586 FILLER_0_39_314
*587 FILLER_0_39_330
*588 FILLER_0_39_66
*589 FILLER_0_39_72
*590 FILLER_0_3_136
*591 FILLER_0_3_142
*592 FILLER_0_3_2
*593 FILLER_0_3_206
*594 FILLER_0_3_212
*595 FILLER_0_3_276
*596 FILLER_0_3_282
*597 FILLER_0_3_314
*598 FILLER_0_3_330
*599 FILLER_0_3_66
*600 FILLER_0_3_72
*601 FILLER_0_40_101
*602 FILLER_0_40_107
*603 FILLER_0_40_171
*604 FILLER_0_40_177
*605 FILLER_0_40_2
*606 FILLER_0_40_241
*607 FILLER_0_40_247
*608 FILLER_0_40_311
*609 FILLER_0_40_317
*610 FILLER_0_40_325
*611 FILLER_0_40_329
*612 FILLER_0_40_34
*613 FILLER_0_40_37
*614 FILLER_0_41_136
*615 FILLER_0_41_142
*616 FILLER_0_41_2
*617 FILLER_0_41_206
*618 FILLER_0_41_212
*619 FILLER_0_41_276
*620 FILLER_0_41_282
*621 FILLER_0_41_314
*622 FILLER_0_41_330
*623 FILLER_0_41_66
*624 FILLER_0_41_72
*625 FILLER_0_42_104
*626 FILLER_0_42_138
*627 FILLER_0_42_178
*628 FILLER_0_42_194
*629 FILLER_0_42_2
*630 FILLER_0_42_202
*631 FILLER_0_42_206
*632 FILLER_0_42_240
*633 FILLER_0_42_274
*634 FILLER_0_42_308
*635 FILLER_0_42_324
*636 FILLER_0_42_328
*637 FILLER_0_42_330
*638 FILLER_0_42_36
*639 FILLER_0_42_70
*640 FILLER_0_4_101
*641 FILLER_0_4_107
*642 FILLER_0_4_171
*643 FILLER_0_4_177
*644 FILLER_0_4_2
*645 FILLER_0_4_241
*646 FILLER_0_4_247
*647 FILLER_0_4_311
*648 FILLER_0_4_317
*649 FILLER_0_4_325
*650 FILLER_0_4_329
*651 FILLER_0_4_34
*652 FILLER_0_4_37
*653 FILLER_0_5_136
*654 FILLER_0_5_142
*655 FILLER_0_5_2
*656 FILLER_0_5_206
*657 FILLER_0_5_212
*658 FILLER_0_5_276
*659 FILLER_0_5_282
*660 FILLER_0_5_314
*661 FILLER_0_5_330
*662 FILLER_0_5_66
*663 FILLER_0_5_72
*664 FILLER_0_6_101
*665 FILLER_0_6_107
*666 FILLER_0_6_171
*667 FILLER_0_6_177
*668 FILLER_0_6_2
*669 FILLER_0_6_241
*670 FILLER_0_6_247
*671 FILLER_0_6_311
*672 FILLER_0_6_317
*673 FILLER_0_6_325
*674 FILLER_0_6_329
*675 FILLER_0_6_34
*676 FILLER_0_6_37
*677 FILLER_0_7_136
*678 FILLER_0_7_142
*679 FILLER_0_7_2
*680 FILLER_0_7_206
*681 FILLER_0_7_212
*682 FILLER_0_7_276
*683 FILLER_0_7_282
*684 FILLER_0_7_314
*685 FILLER_0_7_330
*686 FILLER_0_7_66
*687 FILLER_0_7_72
*688 FILLER_0_8_101
*689 FILLER_0_8_107
*690 FILLER_0_8_171
*691 FILLER_0_8_177
*692 FILLER_0_8_2
*693 FILLER_0_8_241
*694 FILLER_0_8_247
*695 FILLER_0_8_311
*696 FILLER_0_8_317
*697 FILLER_0_8_325
*698 FILLER_0_8_329
*699 FILLER_0_8_34
*700 FILLER_0_8_37
*701 FILLER_0_9_136
*702 FILLER_0_9_142
*703 FILLER_0_9_2
*704 FILLER_0_9_206
*705 FILLER_0_9_212
*706 FILLER_0_9_276
*707 FILLER_0_9_282
*708 FILLER_0_9_314
*709 FILLER_0_9_330
*710 FILLER_0_9_66
*711 FILLER_0_9_72
*712 PHY_EDGE_ROW_0_Left_43
*713 PHY_EDGE_ROW_0_Right_0
*714 PHY_EDGE_ROW_10_Left_53
*715 PHY_EDGE_ROW_10_Right_10
*716 PHY_EDGE_ROW_11_Left_54
*717 PHY_EDGE_ROW_11_Right_11
*718 PHY_EDGE_ROW_12_Left_55
*719 PHY_EDGE_ROW_12_Right_12
*720 PHY_EDGE_ROW_13_Left_56
*721 PHY_EDGE_ROW_13_Right_13
*722 PHY_EDGE_ROW_14_Left_57
*723 PHY_EDGE_ROW_14_Right_14
*724 PHY_EDGE_ROW_15_Left_58
*725 PHY_EDGE_ROW_15_Right_15
*726 PHY_EDGE_ROW_16_Left_59
*727 PHY_EDGE_ROW_16_Right_16
*728 PHY_EDGE_ROW_17_Left_60
*729 PHY_EDGE_ROW_17_Right_17
*730 PHY_EDGE_ROW_18_Left_61
*731 PHY_EDGE_ROW_18_Right_18
*732 PHY_EDGE_ROW_19_Left_62
*733 PHY_EDGE_ROW_19_Right_19
*734 PHY_EDGE_ROW_1_Left_44
*735 PHY_EDGE_ROW_1_Right_1
*736 PHY_EDGE_ROW_20_Left_63
*737 PHY_EDGE_ROW_20_Right_20
*738 PHY_EDGE_ROW_21_Left_64
*739 PHY_EDGE_ROW_21_Right_21
*740 PHY_EDGE_ROW_22_Left_65
*741 PHY_EDGE_ROW_22_Right_22
*742 PHY_EDGE_ROW_23_Left_66
*743 PHY_EDGE_ROW_23_Right_23
*744 PHY_EDGE_ROW_24_Left_67
*745 PHY_EDGE_ROW_24_Right_24
*746 PHY_EDGE_ROW_25_Left_68
*747 PHY_EDGE_ROW_25_Right_25
*748 PHY_EDGE_ROW_26_Left_69
*749 PHY_EDGE_ROW_26_Right_26
*750 PHY_EDGE_ROW_27_Left_70
*751 PHY_EDGE_ROW_27_Right_27
*752 PHY_EDGE_ROW_28_Left_71
*753 PHY_EDGE_ROW_28_Right_28
*754 PHY_EDGE_ROW_29_Left_72
*755 PHY_EDGE_ROW_29_Right_29
*756 PHY_EDGE_ROW_2_Left_45
*757 PHY_EDGE_ROW_2_Right_2
*758 PHY_EDGE_ROW_30_Left_73
*759 PHY_EDGE_ROW_30_Right_30
*760 PHY_EDGE_ROW_31_Left_74
*761 PHY_EDGE_ROW_31_Right_31
*762 PHY_EDGE_ROW_32_Left_75
*763 PHY_EDGE_ROW_32_Right_32
*764 PHY_EDGE_ROW_33_Left_76
*765 PHY_EDGE_ROW_33_Right_33
*766 PHY_EDGE_ROW_34_Left_77
*767 PHY_EDGE_ROW_34_Right_34
*768 PHY_EDGE_ROW_35_Left_78
*769 PHY_EDGE_ROW_35_Right_35
*770 PHY_EDGE_ROW_36_Left_79
*771 PHY_EDGE_ROW_36_Right_36
*772 PHY_EDGE_ROW_37_Left_80
*773 PHY_EDGE_ROW_37_Right_37
*774 PHY_EDGE_ROW_38_Left_81
*775 PHY_EDGE_ROW_38_Right_38
*776 PHY_EDGE_ROW_39_Left_82
*777 PHY_EDGE_ROW_39_Right_39
*778 PHY_EDGE_ROW_3_Left_46
*779 PHY_EDGE_ROW_3_Right_3
*780 PHY_EDGE_ROW_40_Left_83
*781 PHY_EDGE_ROW_40_Right_40
*782 PHY_EDGE_ROW_41_Left_84
*783 PHY_EDGE_ROW_41_Right_41
*784 PHY_EDGE_ROW_42_Left_85
*785 PHY_EDGE_ROW_42_Right_42
*786 PHY_EDGE_ROW_4_Left_47
*787 PHY_EDGE_ROW_4_Right_4
*788 PHY_EDGE_ROW_5_Left_48
*789 PHY_EDGE_ROW_5_Right_5
*790 PHY_EDGE_ROW_6_Left_49
*791 PHY_EDGE_ROW_6_Right_6
*792 PHY_EDGE_ROW_7_Left_50
*793 PHY_EDGE_ROW_7_Right_7
*794 PHY_EDGE_ROW_8_Left_51
*795 PHY_EDGE_ROW_8_Right_8
*796 PHY_EDGE_ROW_9_Left_52
*797 PHY_EDGE_ROW_9_Right_9
*798 TAP_TAPCELL_ROW_0_86
*799 TAP_TAPCELL_ROW_0_87
*800 TAP_TAPCELL_ROW_0_88
*801 TAP_TAPCELL_ROW_0_89
*802 TAP_TAPCELL_ROW_0_90
*803 TAP_TAPCELL_ROW_0_91
*804 TAP_TAPCELL_ROW_0_92
*805 TAP_TAPCELL_ROW_0_93
*806 TAP_TAPCELL_ROW_0_94
*807 TAP_TAPCELL_ROW_10_135
*808 TAP_TAPCELL_ROW_10_136
*809 TAP_TAPCELL_ROW_10_137
*810 TAP_TAPCELL_ROW_10_138
*811 TAP_TAPCELL_ROW_10_139
*812 TAP_TAPCELL_ROW_11_140
*813 TAP_TAPCELL_ROW_11_141
*814 TAP_TAPCELL_ROW_11_142
*815 TAP_TAPCELL_ROW_11_143
*816 TAP_TAPCELL_ROW_12_144
*817 TAP_TAPCELL_ROW_12_145
*818 TAP_TAPCELL_ROW_12_146
*819 TAP_TAPCELL_ROW_12_147
*820 TAP_TAPCELL_ROW_12_148
*821 TAP_TAPCELL_ROW_13_149
*822 TAP_TAPCELL_ROW_13_150
*823 TAP_TAPCELL_ROW_13_151
*824 TAP_TAPCELL_ROW_13_152
*825 TAP_TAPCELL_ROW_14_153
*826 TAP_TAPCELL_ROW_14_154
*827 TAP_TAPCELL_ROW_14_155
*828 TAP_TAPCELL_ROW_14_156
*829 TAP_TAPCELL_ROW_14_157
*830 TAP_TAPCELL_ROW_15_158
*831 TAP_TAPCELL_ROW_15_159
*832 TAP_TAPCELL_ROW_15_160
*833 TAP_TAPCELL_ROW_15_161
*834 TAP_TAPCELL_ROW_16_162
*835 TAP_TAPCELL_ROW_16_163
*836 TAP_TAPCELL_ROW_16_164
*837 TAP_TAPCELL_ROW_16_165
*838 TAP_TAPCELL_ROW_16_166
*839 TAP_TAPCELL_ROW_17_167
*840 TAP_TAPCELL_ROW_17_168
*841 TAP_TAPCELL_ROW_17_169
*842 TAP_TAPCELL_ROW_17_170
*843 TAP_TAPCELL_ROW_18_171
*844 TAP_TAPCELL_ROW_18_172
*845 TAP_TAPCELL_ROW_18_173
*846 TAP_TAPCELL_ROW_18_174
*847 TAP_TAPCELL_ROW_18_175
*848 TAP_TAPCELL_ROW_19_176
*849 TAP_TAPCELL_ROW_19_177
*850 TAP_TAPCELL_ROW_19_178
*851 TAP_TAPCELL_ROW_19_179
*852 TAP_TAPCELL_ROW_1_95
*853 TAP_TAPCELL_ROW_1_96
*854 TAP_TAPCELL_ROW_1_97
*855 TAP_TAPCELL_ROW_1_98
*856 TAP_TAPCELL_ROW_20_180
*857 TAP_TAPCELL_ROW_20_181
*858 TAP_TAPCELL_ROW_20_182
*859 TAP_TAPCELL_ROW_20_183
*860 TAP_TAPCELL_ROW_20_184
*861 TAP_TAPCELL_ROW_21_185
*862 TAP_TAPCELL_ROW_21_186
*863 TAP_TAPCELL_ROW_21_187
*864 TAP_TAPCELL_ROW_21_188
*865 TAP_TAPCELL_ROW_22_189
*866 TAP_TAPCELL_ROW_22_190
*867 TAP_TAPCELL_ROW_22_191
*868 TAP_TAPCELL_ROW_22_192
*869 TAP_TAPCELL_ROW_22_193
*870 TAP_TAPCELL_ROW_23_194
*871 TAP_TAPCELL_ROW_23_195
*872 TAP_TAPCELL_ROW_23_196
*873 TAP_TAPCELL_ROW_23_197
*874 TAP_TAPCELL_ROW_24_198
*875 TAP_TAPCELL_ROW_24_199
*876 TAP_TAPCELL_ROW_24_200
*877 TAP_TAPCELL_ROW_24_201
*878 TAP_TAPCELL_ROW_24_202
*879 TAP_TAPCELL_ROW_25_203
*880 TAP_TAPCELL_ROW_25_204
*881 TAP_TAPCELL_ROW_25_205
*882 TAP_TAPCELL_ROW_25_206
*883 TAP_TAPCELL_ROW_26_207
*884 TAP_TAPCELL_ROW_26_208
*885 TAP_TAPCELL_ROW_26_209
*886 TAP_TAPCELL_ROW_26_210
*887 TAP_TAPCELL_ROW_26_211
*888 TAP_TAPCELL_ROW_27_212
*889 TAP_TAPCELL_ROW_27_213
*890 TAP_TAPCELL_ROW_27_214
*891 TAP_TAPCELL_ROW_27_215
*892 TAP_TAPCELL_ROW_28_216
*893 TAP_TAPCELL_ROW_28_217
*894 TAP_TAPCELL_ROW_28_218
*895 TAP_TAPCELL_ROW_28_219
*896 TAP_TAPCELL_ROW_28_220
*897 TAP_TAPCELL_ROW_29_221
*898 TAP_TAPCELL_ROW_29_222
*899 TAP_TAPCELL_ROW_29_223
*900 TAP_TAPCELL_ROW_29_224
*901 TAP_TAPCELL_ROW_2_100
*902 TAP_TAPCELL_ROW_2_101
*903 TAP_TAPCELL_ROW_2_102
*904 TAP_TAPCELL_ROW_2_103
*905 TAP_TAPCELL_ROW_2_99
*906 TAP_TAPCELL_ROW_30_225
*907 TAP_TAPCELL_ROW_30_226
*908 TAP_TAPCELL_ROW_30_227
*909 TAP_TAPCELL_ROW_30_228
*910 TAP_TAPCELL_ROW_30_229
*911 TAP_TAPCELL_ROW_31_230
*912 TAP_TAPCELL_ROW_31_231
*913 TAP_TAPCELL_ROW_31_232
*914 TAP_TAPCELL_ROW_31_233
*915 TAP_TAPCELL_ROW_32_234
*916 TAP_TAPCELL_ROW_32_235
*917 TAP_TAPCELL_ROW_32_236
*918 TAP_TAPCELL_ROW_32_237
*919 TAP_TAPCELL_ROW_32_238
*920 TAP_TAPCELL_ROW_33_239
*921 TAP_TAPCELL_ROW_33_240
*922 TAP_TAPCELL_ROW_33_241
*923 TAP_TAPCELL_ROW_33_242
*924 TAP_TAPCELL_ROW_34_243
*925 TAP_TAPCELL_ROW_34_244
*926 TAP_TAPCELL_ROW_34_245
*927 TAP_TAPCELL_ROW_34_246
*928 TAP_TAPCELL_ROW_34_247
*929 TAP_TAPCELL_ROW_35_248
*930 TAP_TAPCELL_ROW_35_249
*931 TAP_TAPCELL_ROW_35_250
*932 TAP_TAPCELL_ROW_35_251
*933 TAP_TAPCELL_ROW_36_252
*934 TAP_TAPCELL_ROW_36_253
*935 TAP_TAPCELL_ROW_36_254
*936 TAP_TAPCELL_ROW_36_255
*937 TAP_TAPCELL_ROW_36_256
*938 TAP_TAPCELL_ROW_37_257
*939 TAP_TAPCELL_ROW_37_258
*940 TAP_TAPCELL_ROW_37_259
*941 TAP_TAPCELL_ROW_37_260
*942 TAP_TAPCELL_ROW_38_261
*943 TAP_TAPCELL_ROW_38_262
*944 TAP_TAPCELL_ROW_38_263
*945 TAP_TAPCELL_ROW_38_264
*946 TAP_TAPCELL_ROW_38_265
*947 TAP_TAPCELL_ROW_39_266
*948 TAP_TAPCELL_ROW_39_267
*949 TAP_TAPCELL_ROW_39_268
*950 TAP_TAPCELL_ROW_39_269
*951 TAP_TAPCELL_ROW_3_104
*952 TAP_TAPCELL_ROW_3_105
*953 TAP_TAPCELL_ROW_3_106
*954 TAP_TAPCELL_ROW_3_107
*955 TAP_TAPCELL_ROW_40_270
*956 TAP_TAPCELL_ROW_40_271
*957 TAP_TAPCELL_ROW_40_272
*958 TAP_TAPCELL_ROW_40_273
*959 TAP_TAPCELL_ROW_40_274
*960 TAP_TAPCELL_ROW_41_275
*961 TAP_TAPCELL_ROW_41_276
*962 TAP_TAPCELL_ROW_41_277
*963 TAP_TAPCELL_ROW_41_278
*964 TAP_TAPCELL_ROW_42_279
*965 TAP_TAPCELL_ROW_42_280
*966 TAP_TAPCELL_ROW_42_281
*967 TAP_TAPCELL_ROW_42_282
*968 TAP_TAPCELL_ROW_42_283
*969 TAP_TAPCELL_ROW_42_284
*970 TAP_TAPCELL_ROW_42_285
*971 TAP_TAPCELL_ROW_42_286
*972 TAP_TAPCELL_ROW_42_287
*973 TAP_TAPCELL_ROW_4_108
*974 TAP_TAPCELL_ROW_4_109
*975 TAP_TAPCELL_ROW_4_110
*976 TAP_TAPCELL_ROW_4_111
*977 TAP_TAPCELL_ROW_4_112
*978 TAP_TAPCELL_ROW_5_113
*979 TAP_TAPCELL_ROW_5_114
*980 TAP_TAPCELL_ROW_5_115
*981 TAP_TAPCELL_ROW_5_116
*982 TAP_TAPCELL_ROW_6_117
*983 TAP_TAPCELL_ROW_6_118
*984 TAP_TAPCELL_ROW_6_119
*985 TAP_TAPCELL_ROW_6_120
*986 TAP_TAPCELL_ROW_6_121
*987 TAP_TAPCELL_ROW_7_122
*988 TAP_TAPCELL_ROW_7_123
*989 TAP_TAPCELL_ROW_7_124
*990 TAP_TAPCELL_ROW_7_125
*991 TAP_TAPCELL_ROW_8_126
*992 TAP_TAPCELL_ROW_8_127
*993 TAP_TAPCELL_ROW_8_128
*994 TAP_TAPCELL_ROW_8_129
*995 TAP_TAPCELL_ROW_8_130
*996 TAP_TAPCELL_ROW_9_131
*997 TAP_TAPCELL_ROW_9_132
*998 TAP_TAPCELL_ROW_9_133
*999 TAP_TAPCELL_ROW_9_134
*1000 _16_
*1001 _17_
*1002 _18_
*1003 _19_
*1004 _20_
*1005 _21_
*1006 _22_
*1007 _23_
*1008 _24_
*1009 _25_
*1010 _26_
*1011 _27_
*1012 _28_
*1013 _29_
*1014 _30_
*1015 _31_
*1016 _32_
*1017 _33_
*1018 _34_
*1019 _35_
*1020 _36_
*1021 _37_
*1022 _38_
*1023 _39_
*1024 _40_
*1025 _41_
*1026 _42_
*1027 _43_
*1028 input1
*1029 input10
*1030 input11
*1031 input12
*1032 input13
*1033 input14
*1034 input15
*1035 input16
*1036 input17
*1037 input18
*1038 input19
*1039 input2
*1040 input3
*1041 input4
*1042 input5
*1043 input6
*1044 input7
*1045 input8
*1046 input9
*1047 output20
*1048 output21
*1049 output22
*1050 output23
*1051 output24
*1052 output25
*1053 output26
*1054 output27
*1055 output28
*1056 output29
*1057 output30
*1058 output31

*PORTS
clk I
in[0] I
in[10] I
in[11] I
in[12] I
in[13] I
in[14] I
in[15] I
in[16] I
in[17] I
in[1] I
in[2] I
in[3] I
in[4] I
in[5] I
in[6] I
in[7] I
in[8] I
in[9] I
out[0] O
out[10] O
out[11] O
out[1] O
out[2] O
out[3] O
out[4] O
out[5] O
out[6] O
out[7] O
out[8] O
out[9] O
rst_n I

*D_NET *1 0.00336293
*CONN
*P clk I
*I *94:I I *D gf180mcu_fd_sc_mcu7t5v0__antenna
*I *1027:I I *D gf180mcu_fd_sc_mcu7t5v0__buf_1
*CAP
1 clk 0.0012651
2 *94:I 0.000221048
3 *1027:I 3.22932e-05
4 *1:5 0.00151845
5 *94:I *1047:I 0
6 *1027:I *1047:I 3.97987e-05
7 *1:5 out[0] 7.03427e-05
8 *1:5 *1047:I 0.000215897
*RES
1 clk *1:5 9.405 
2 *1:5 *1027:I 4.77 
3 *1:5 *94:I 14.67 
*END

*D_NET *2 0.00131791
*CONN
*P in[0] I
*I *105:I I *D gf180mcu_fd_sc_mcu7t5v0__antenna
*I *1028:I I *D gf180mcu_fd_sc_mcu7t5v0__clkbuf_1
*CAP
1 in[0] 0.000209896
2 *105:I 0.000277874
3 *1028:I 0.000119248
4 *2:5 0.000607019
5 *105:I out[4] 9.93373e-06
6 *105:I *1004:A1 4.43481e-05
7 *2:5 out[4] 4.95932e-05
*RES
1 in[0] *2:5 1.665 
2 *2:5 *1028:I 9.81 
3 *2:5 *105:I 10.98 
*END

*D_NET *3 0.00256368
*CONN
*P in[10] I
*I *106:I I *D gf180mcu_fd_sc_mcu7t5v0__antenna
*I *1039:I I *D gf180mcu_fd_sc_mcu7t5v0__clkbuf_1
*CAP
1 in[10] 0.000274965
2 *106:I 0.00022979
3 *1039:I 0.000124766
4 *3:5 0.00062952
5 *106:I *98:I 1.9071e-05
6 *106:I *102:I 1.0415e-05
7 *106:I *59:14 0.000499907
8 *106:I *62:12 4.82122e-05
9 *1039:I *98:I 0.000294421
10 *1039:I *102:I 1.86887e-06
11 *1039:I *1000:A1 1.0415e-05
12 *1039:I *59:14 2.31089e-05
13 *3:5 *98:I 2.94344e-05
14 *3:5 *102:I 1.18596e-05
15 *3:5 *14:5 5.42682e-05
16 *3:5 *18:5 5.42682e-05
17 *3:5 *59:14 0.000247389
*RES
1 in[10] *3:5 2.745 
2 *3:5 *1039:I 10.17 
3 *3:5 *106:I 11.34 
*END

*D_NET *4 0.0013384
*CONN
*P in[11] I
*I *1040:I I *D gf180mcu_fd_sc_mcu7t5v0__clkbuf_1
*I *107:I I *D gf180mcu_fd_sc_mcu7t5v0__antenna
*CAP
1 in[11] 0.000319521
2 *1040:I 3.2278e-05
3 *107:I 0.000198334
4 *4:9 0.000550132
5 *1040:I *73:16 3.98088e-05
6 *4:9 *96:I 1.18076e-06
7 *4:9 *12:5 5.42682e-05
8 *4:9 *73:16 0.000142874
*RES
1 in[11] *4:9 7.155 
2 *4:9 *107:I 14.85 
3 *4:9 *1040:I 4.77 
*END

*D_NET *5 0.00099991
*CONN
*P in[12] I
*I *1041:I I *D gf180mcu_fd_sc_mcu7t5v0__clkbuf_1
*I *108:I I *D gf180mcu_fd_sc_mcu7t5v0__antenna
*CAP
1 in[12] 0.000262992
2 *1041:I 3.22932e-05
3 *108:I 0.000157465
4 *5:5 0.00045275
5 *108:I out[7] 1.8115e-05
6 *1041:I out[7] 3.97987e-05
7 *5:5 out[7] 3.64955e-05
*RES
1 in[12] *5:5 1.665 
2 *5:5 *108:I 9.99 
3 *5:5 *1041:I 9.27 
*END

*D_NET *6 0.00112999
*CONN
*P in[13] I
*I *1042:I I *D gf180mcu_fd_sc_mcu7t5v0__clkbuf_1
*I *109:I I *D gf180mcu_fd_sc_mcu7t5v0__antenna
*CAP
1 in[13] 0.000384473
2 *1042:I 2.87414e-05
3 *109:I 0.000101453
4 *6:9 0.000514667
5 *109:I *77:12 8.05869e-05
6 *1042:I *77:12 0
7 *6:9 out[9] 2.00724e-05
8 *6:9 *77:12 0
*RES
1 in[13] *6:9 6.795 
2 *6:9 *109:I 5.49 
3 *6:9 *1042:I 4.77 
*END

*D_NET *7 0.000989596
*CONN
*P in[14] I
*I *1043:I I *D gf180mcu_fd_sc_mcu7t5v0__clkbuf_1
*I *110:I I *D gf180mcu_fd_sc_mcu7t5v0__antenna
*CAP
1 in[14] 0.00023238
2 *1043:I 0.000136693
3 *110:I 5.85399e-05
4 *7:7 0.000427613
5 *110:I *78:12 3.29227e-05
6 *1043:I *78:12 5.23577e-05
7 *7:7 out[6] 2.00724e-05
8 *7:7 *9:7 2.90166e-05
*RES
1 in[14] *7:7 5.985 
2 *7:7 *110:I 4.95 
3 *7:7 *1043:I 5.58 
*END

*D_NET *8 0.0020777
*CONN
*P in[15] I
*I *1044:I I *D gf180mcu_fd_sc_mcu7t5v0__clkbuf_1
*I *111:I I *D gf180mcu_fd_sc_mcu7t5v0__antenna
*CAP
1 in[15] 0.000234181
2 *1044:I 4.64589e-05
3 *111:I 0.000137222
4 *8:5 0.000417862
5 *111:I out[10] 1.56674e-05
6 *111:I *1025:A2 0.00090076
7 *111:I *9:7 3.01575e-05
8 *111:I *80:10 0.000222631
9 *1044:I *77:12 0
10 *8:5 out[10] 3.64955e-05
11 *8:5 *9:7 3.6265e-05
*RES
1 in[15] *8:5 1.665 
2 *8:5 *111:I 11.79 
3 *8:5 *1044:I 9.27 
*END

*D_NET *9 0.00138059
*CONN
*P in[16] I
*I *112:I I *D gf180mcu_fd_sc_mcu7t5v0__antenna
*I *1045:I I *D gf180mcu_fd_sc_mcu7t5v0__clkbuf_1
*CAP
1 in[16] 0.000369604
2 *112:I 0
3 *1045:I 7.39878e-05
4 *9:7 0.000443592
5 *1045:I *1021:A2 9.55009e-05
6 *1045:I *77:12 0.000302466
7 *9:7 *1021:A2 0
8 *9:7 *78:12 0
9 *111:I *9:7 3.01575e-05
10 *7:7 *9:7 2.90166e-05
11 *8:5 *9:7 3.6265e-05
*RES
1 in[16] *9:7 7.065 
2 *9:7 *1045:I 5.58 
3 *9:7 *112:I 4.5 
*END

*D_NET *10 0.00114761
*CONN
*P in[17] I
*I *1046:I I *D gf180mcu_fd_sc_mcu7t5v0__clkbuf_1
*I *113:I I *D gf180mcu_fd_sc_mcu7t5v0__antenna
*CAP
1 in[17] 0.000353645
2 *1046:I 3.44897e-05
3 *113:I 0.000126462
4 *10:9 0.000514597
5 *1046:I *77:12 0
6 *10:9 out[11] 3.93531e-05
7 *10:9 out[9] 7.90622e-05
8 *10:9 *77:12 0
*RES
1 in[17] *10:9 6.975 
2 *10:9 *113:I 5.49 
3 *10:9 *1046:I 4.77 
*END

*D_NET *11 0.00168697
*CONN
*P in[1] I
*I *95:I I *D gf180mcu_fd_sc_mcu7t5v0__antenna
*I *1029:I I *D gf180mcu_fd_sc_mcu7t5v0__clkbuf_1
*CAP
1 in[1] 0.000183696
2 *95:I 0.000196524
3 *1029:I 0.000124893
4 *11:5 0.000505113
5 *95:I out[1] 1.25828e-05
6 *95:I *103:I 1.10842e-05
7 *95:I *1002:A1 7.54325e-05
8 *95:I *1009:A2 0.000307423
9 *95:I *53:20 3.87145e-05
10 *95:I *61:12 7.84041e-05
11 *1029:I *73:16 4.8063e-05
12 *11:5 out[1] 5.42682e-05
13 *11:5 *103:I 1.18076e-06
14 *11:5 *19:5 4.95932e-05
*RES
1 in[1] *11:5 1.665 
2 *11:5 *1029:I 9.81 
3 *11:5 *95:I 10.98 
*END

*D_NET *12 0.00171212
*CONN
*P in[2] I
*I *96:I I *D gf180mcu_fd_sc_mcu7t5v0__antenna
*I *1030:I I *D gf180mcu_fd_sc_mcu7t5v0__clkbuf_1
*CAP
1 in[2] 0.000183696
2 *96:I 0.000333465
3 *1030:I 0.000102769
4 *12:5 0.00061993
5 *96:I *104:I 2.34428e-05
6 *96:I *53:20 0.000223407
7 *1030:I *73:16 0.000119192
8 *12:5 *104:I 1.18076e-06
9 *12:5 *32:5 4.95932e-05
10 *4:9 *96:I 1.18076e-06
11 *4:9 *12:5 5.42682e-05
*RES
1 in[2] *12:5 1.665 
2 *12:5 *1030:I 9.81 
3 *12:5 *96:I 10.98 
*END

*D_NET *13 0.00179697
*CONN
*P in[3] I
*I *97:I I *D gf180mcu_fd_sc_mcu7t5v0__antenna
*I *1031:I I *D gf180mcu_fd_sc_mcu7t5v0__clkbuf_1
*CAP
1 in[3] 0.00015478
2 *97:I 0.000320962
3 *1031:I 5.6268e-05
4 *13:5 0.00053201
5 *97:I *99:I 9.39061e-05
6 *97:I *100:I 1.44901e-05
7 *97:I *1001:A1 4.56275e-05
8 *97:I *1001:A2 3.97987e-05
9 *97:I *1033:I 9.85004e-05
10 *97:I *15:9 0.000113202
11 *97:I *16:5 1.18076e-06
12 *97:I *53:20 6.97934e-05
13 *97:I *61:12 0.000114253
14 *1031:I *73:16 3.08015e-05
15 *13:5 *15:9 5.71292e-05
16 *13:5 *16:5 5.42682e-05
*RES
1 in[3] *13:5 1.665 
2 *13:5 *1031:I 9.45 
3 *13:5 *97:I 11.7 
*END

*D_NET *14 0.00135477
*CONN
*P in[4] I
*I *98:I I *D gf180mcu_fd_sc_mcu7t5v0__antenna
*I *1032:I I *D gf180mcu_fd_sc_mcu7t5v0__clkbuf_1
*CAP
1 in[4] 0.00015478
2 *98:I 0.000277525
3 *1032:I 0
4 *14:5 0.000432305
5 *98:I *101:I 3.27461e-05
6 *98:I *17:5 3.08806e-06
7 *14:5 *17:5 5.71292e-05
8 *106:I *98:I 1.9071e-05
9 *1039:I *98:I 0.000294421
10 *3:5 *98:I 2.94344e-05
11 *3:5 *14:5 5.42682e-05
*RES
1 in[4] *14:5 1.665 
2 *14:5 *1032:I 9 
3 *14:5 *98:I 11.16 
*END

*D_NET *15 0.00249419
*CONN
*P in[5] I
*I *1033:I I *D gf180mcu_fd_sc_mcu7t5v0__clkbuf_1
*I *99:I I *D gf180mcu_fd_sc_mcu7t5v0__antenna
*CAP
1 in[5] 0.000409318
2 *1033:I 3.36428e-06
3 *99:I 0.000100632
4 *15:9 0.000513314
5 *99:I *1001:A1 8.429e-05
6 *99:I *1001:A2 0.000317701
7 *1033:I *61:12 7.10237e-05
8 *15:9 out[2] 6.66205e-05
9 *15:9 *53:20 6.84043e-05
10 *15:9 *61:12 0.000496785