*SPEF "ieee 1481-1999"
*DESIGN "loopback"
*DATE "11:11:11 Fri 11 11, 1111"
*VENDOR "OpenRCX"
*PROGRAM "Parallel Extraction"
*VERSION "1.0"
*DESIGN_FLOW "NAME_SCOPE LOCAL" "PIN_CAP NONE"
*DIVIDER /
*DELIMITER :
*BUS_DELIMITER []
*T_UNIT 1 NS
*C_UNIT 1 PF
*R_UNIT 1 OHM
*L_UNIT 1 HENRY

*NAME_MAP
*1 clk
*2 in[0]
*3 in[10]
*4 in[11]
*5 in[12]
*6 in[13]
*7 in[14]
*8 in[15]
*9 in[16]
*10 in[17]
*11 in[18]
*12 in[1]
*13 in[2]
*14 in[3]
*15 in[4]
*16 in[5]
*17 in[6]
*18 in[7]
*19 in[8]
*20 in[9]
*21 out[0]
*22 out[10]
*23 out[11]
*24 out[1]
*25 out[2]
*26 out[3]
*27 out[4]
*28 out[5]
*29 out[6]
*30 out[7]
*31 out[8]
*32 out[9]
*33 rst_n
*36 _00_
*37 _01_
*38 _02_
*39 _03_
*40 _04_
*41 _05_
*42 _06_
*43 _07_
*44 _08_
*45 _09_
*46 _10_
*47 _11_
*48 _12_
*49 _13_
*50 _14_
*51 _15_
*52 net1
*53 net10
*54 net11
*55 net12
*56 net13
*57 net14
*58 net15
*59 net16
*60 net17
*61 net18
*62 net19
*63 net2
*64 net20
*65 net21
*66 net22
*67 net23
*68 net24
*69 net25
*70 net26
*71 net27
*72 net28
*73 net29
*74 net3
*75 net30
*76 net31
*77 net32
*78 net4
*79 net5
*80 net6
*81 net7
*82 net8
*83 net9
*84 ANTENNA__43__I
*85 ANTENNA_input10_I
*86 ANTENNA_input11_I
*87 ANTENNA_input12_I
*88 ANTENNA_input13_I
*89 ANTENNA_input14_I
*90 ANTENNA_input15_I
*91 ANTENNA_input16_I
*92 ANTENNA_input17_I
*93 ANTENNA_input18_I
*94 ANTENNA_input19_I
*95 ANTENNA_input1_I
*96 ANTENNA_input20_I
*97 ANTENNA_input2_I
*98 ANTENNA_input3_I
*99 ANTENNA_input4_I
*100 ANTENNA_input5_I
*101 ANTENNA_input6_I
*102 ANTENNA_input7_I
*103 ANTENNA_input8_I
*104 ANTENNA_input9_I
*105 FILLER_0_0_101
*106 FILLER_0_0_104
*107 FILLER_0_0_112
*108 FILLER_0_0_12
*109 FILLER_0_0_16
*110 FILLER_0_0_32
*111 FILLER_0_0_36
*112 FILLER_0_0_44
*113 FILLER_0_0_46
*114 FILLER_0_0_67
*115 FILLER_0_0_70
*116 FILLER_0_0_72
*117 FILLER_0_0_8
*118 FILLER_0_0_99
*119 FILLER_0_10_115
*120 FILLER_0_10_2
*121 FILLER_0_10_34
*122 FILLER_0_10_37
*123 FILLER_0_10_45
*124 FILLER_0_10_49
*125 FILLER_0_10_52
*126 FILLER_0_11_2
*127 FILLER_0_11_36
*128 FILLER_0_11_46
*129 FILLER_0_1_102
*130 FILLER_0_1_104
*131 FILLER_0_1_107
*132 FILLER_0_1_109
*133 FILLER_0_1_14
*134 FILLER_0_1_18
*135 FILLER_0_1_34
*136 FILLER_0_1_42
*137 FILLER_0_1_51
*138 FILLER_0_1_61
*139 FILLER_0_1_69
*140 FILLER_0_1_98
*141 FILLER_0_2_113
*142 FILLER_0_2_115
*143 FILLER_0_2_14
*144 FILLER_0_2_18
*145 FILLER_0_2_22
*146 FILLER_0_2_30
*147 FILLER_0_2_34
*148 FILLER_0_2_37
*149 FILLER_0_2_45
*150 FILLER_0_2_49
*151 FILLER_0_2_51
*152 FILLER_0_2_60
*153 FILLER_0_2_92
*154 FILLER_0_2_96
*155 FILLER_0_2_98
*156 FILLER_0_3_37
*157 FILLER_0_3_45
*158 FILLER_0_3_72
*159 FILLER_0_3_74
*160 FILLER_0_3_83
*161 FILLER_0_4_10
*162 FILLER_0_4_113
*163 FILLER_0_4_115
*164 FILLER_0_4_34
*165 FILLER_0_4_49
*166 FILLER_0_4_8
*167 FILLER_0_5_17
*168 FILLER_0_5_2
*169 FILLER_0_5_21
*170 FILLER_0_5_4
*171 FILLER_0_5_52
*172 FILLER_0_5_54
*173 FILLER_0_5_67
*174 FILLER_0_5_69
*175 FILLER_0_5_72
*176 FILLER_0_5_74
*177 FILLER_0_5_87
*178 FILLER_0_5_89
*179 FILLER_0_6_115
*180 FILLER_0_6_14
*181 FILLER_0_6_18
*182 FILLER_0_6_22
*183 FILLER_0_6_30
*184 FILLER_0_6_34
*185 FILLER_0_6_37
*186 FILLER_0_6_53
*187 FILLER_0_6_55
*188 FILLER_0_7_12
*189 FILLER_0_7_44
*190 FILLER_0_7_60
*191 FILLER_0_7_8
*192 FILLER_0_8_115
*193 FILLER_0_8_12
*194 FILLER_0_8_28
*195 FILLER_0_8_32
*196 FILLER_0_8_34
*197 FILLER_0_8_37
*198 FILLER_0_8_53
*199 FILLER_0_8_55
*200 FILLER_0_8_8
*201 FILLER_0_9_2
*202 FILLER_0_9_34
*203 FILLER_0_9_50
*204 FILLER_0_9_60
*205 PHY_EDGE_ROW_0_Left_12
*206 PHY_EDGE_ROW_0_Right_0
*207 PHY_EDGE_ROW_10_Left_22
*208 PHY_EDGE_ROW_10_Right_10
*209 PHY_EDGE_ROW_11_Left_23
*210 PHY_EDGE_ROW_11_Right_11
*211 PHY_EDGE_ROW_1_Left_13
*212 PHY_EDGE_ROW_1_Right_1
*213 PHY_EDGE_ROW_2_Left_14
*214 PHY_EDGE_ROW_2_Right_2
*215 PHY_EDGE_ROW_3_Left_15
*216 PHY_EDGE_ROW_3_Right_3
*217 PHY_EDGE_ROW_4_Left_16
*218 PHY_EDGE_ROW_4_Right_4
*219 PHY_EDGE_ROW_5_Left_17
*220 PHY_EDGE_ROW_5_Right_5
*221 PHY_EDGE_ROW_6_Left_18
*222 PHY_EDGE_ROW_6_Right_6
*223 PHY_EDGE_ROW_7_Left_19
*224 PHY_EDGE_ROW_7_Right_7
*225 PHY_EDGE_ROW_8_Left_20
*226 PHY_EDGE_ROW_8_Right_8
*227 PHY_EDGE_ROW_9_Left_21
*228 PHY_EDGE_ROW_9_Right_9
*229 TAP_TAPCELL_ROW_0_24
*230 TAP_TAPCELL_ROW_0_25
*231 TAP_TAPCELL_ROW_0_26
*232 TAP_TAPCELL_ROW_10_40
*233 TAP_TAPCELL_ROW_10_41
*234 TAP_TAPCELL_ROW_11_42
*235 TAP_TAPCELL_ROW_11_43
*236 TAP_TAPCELL_ROW_11_44
*237 TAP_TAPCELL_ROW_1_27
*238 TAP_TAPCELL_ROW_2_28
*239 TAP_TAPCELL_ROW_2_29
*240 TAP_TAPCELL_ROW_3_30
*241 TAP_TAPCELL_ROW_4_31
*242 TAP_TAPCELL_ROW_4_32
*243 TAP_TAPCELL_ROW_5_33
*244 TAP_TAPCELL_ROW_6_34
*245 TAP_TAPCELL_ROW_6_35
*246 TAP_TAPCELL_ROW_7_36
*247 TAP_TAPCELL_ROW_8_37
*248 TAP_TAPCELL_ROW_8_38
*249 TAP_TAPCELL_ROW_9_39
*250 _16_
*251 _17_
*252 _18_
*253 _19_
*254 _20_
*255 _21_
*256 _22_
*257 _23_
*258 _24_
*259 _25_
*260 _26_
*261 _27_
*262 _28_
*263 _29_
*264 _30_
*265 _31_
*266 _32_
*267 _33_
*268 _34_
*269 _35_
*270 _36_
*271 _37_
*272 _38_
*273 _39_
*274 _40_
*275 _41_
*276 _42_
*277 _43_
*278 input1
*279 input10
*280 input11
*281 input12
*282 input13
*283 input14
*284 input15
*285 input16
*286 input17
*287 input18
*288 input19
*289 input2
*290 input20
*291 input3
*292 input4
*293 input5
*294 input6
*295 input7
*296 input8
*297 input9
*298 output21
*299 output22
*300 output23
*301 output24
*302 output25
*303 output26
*304 output27
*305 output28
*306 output29
*307 output30
*308 output31
*309 output32

*PORTS
clk I
in[0] I
in[10] I
in[11] I
in[12] I
in[13] I
in[14] I
in[15] I
in[16] I
in[17] I
in[18] I
in[1] I
in[2] I
in[3] I
in[4] I
in[5] I
in[6] I
in[7] I
in[8] I
in[9] I
out[0] O
out[10] O
out[11] O
out[1] O
out[2] O
out[3] O
out[4] O
out[5] O
out[6] O
out[7] O
out[8] O
out[9] O
rst_n I

*D_NET *1 0.00201397
*CONN
*P clk I
*I *277:I I *D gf180mcu_fd_sc_mcu7t5v0__buf_1
*I *84:I I *D gf180mcu_fd_sc_mcu7t5v0__antenna
*CAP
1 clk 0.000834136
2 *277:I 0.00011777
3 *84:I 0
4 *1:13 0.000951905
5 *277:I *298:I 7.96333e-06
6 *1:13 out[0] 0.000102196
7 *1:13 *3:9 0
*RES
1 clk *1:13 6.525 
2 *1:13 *84:I 4.5 
3 *1:13 *277:I 5.4 
*END

*D_NET *2 0.00259459
*CONN
*P in[0] I
*I *95:I I *D gf180mcu_fd_sc_mcu7t5v0__antenna
*I *278:I I *D gf180mcu_fd_sc_mcu7t5v0__clkbuf_1
*CAP
1 in[0] 0.000182622
2 *95:I 0.000419638
3 *278:I 2.65826e-05
4 *2:7 0.000628843
5 *95:I *250:A2 0.00035741
6 *95:I *252:A2 5.27533e-05
7 *95:I *254:A2 0.000216907
8 *95:I *33:9 0.000497814
9 *278:I *250:A2 9.84908e-05
10 *2:7 *15:9 5.42682e-05
11 *2:7 *33:9 5.92636e-05
*RES
1 in[0] *2:7 6.345 
2 *2:7 *278:I 4.77 
3 *2:7 *95:I 17.28 
*END

*D_NET *3 0.0021584
*CONN
*P in[10] I
*I *289:I I *D gf180mcu_fd_sc_mcu7t5v0__clkbuf_1
*I *97:I I *D gf180mcu_fd_sc_mcu7t5v0__antenna
*CAP
1 in[10] 0.000544102
2 *289:I 0.000246674
3 *97:I 5.54665e-05
4 *3:9 0.000846243
5 *97:I out[0] 8.05869e-05
6 *97:I *298:I 0
7 *3:9 out[0] 0.000274944
8 *3:9 *259:A2 9.89629e-06
9 *3:9 *298:I 3.01487e-05
10 *3:9 *20:9 7.03427e-05
11 *1:13 *3:9 0
*RES
1 in[10] *3:9 5.265 
2 *3:9 *97:I 5.13 
3 *3:9 *289:I 14.85 
*END

*D_NET *4 0.00191309
*CONN
*P in[11] I
*I *98:I I *D gf180mcu_fd_sc_mcu7t5v0__antenna
*I *291:I I *D gf180mcu_fd_sc_mcu7t5v0__clkbuf_1
*CAP
1 in[11] 0.000598709
2 *98:I 0.000187192
3 *291:I 7.13768e-05
4 *4:9 0.000857278
5 *98:I *308:I 5.36871e-05
6 *98:I *5:9 0
7 *98:I *74:16 1.19491e-05
8 *291:I *74:16 3.22122e-05
9 *4:9 *263:A2 0
10 *4:9 *276:I 0
11 *4:9 *308:I 4.12795e-05
12 *4:9 *5:9 3.99722e-05
13 *4:9 *74:16 1.94333e-05
*RES
1 in[11] *4:9 8.415 
2 *4:9 *291:I 5.22 
3 *4:9 *98:I 5.94 
*END

*D_NET *5 0.00205177
*CONN
*P in[12] I
*I *99:I I *D gf180mcu_fd_sc_mcu7t5v0__antenna
*I *292:I I *D gf180mcu_fd_sc_mcu7t5v0__clkbuf_1
*CAP
1 in[12] 0.000609384
2 *99:I 0.00023288
3 *292:I 0
4 *5:9 0.000842264
5 *5:9 out[3] 4.26716e-05
6 *5:9 *270:I 0.000279287
7 *5:9 *308:I 5.30888e-06
8 *98:I *5:9 0
9 *4:9 *5:9 3.99722e-05
*RES
1 in[12] *5:9 9.135 
2 *5:9 *292:I 4.5 
3 *5:9 *99:I 6.12 
*END

*D_NET *6 0.00388786
*CONN
*P in[13] I
*I *293:I I *D gf180mcu_fd_sc_mcu7t5v0__clkbuf_1
*I *100:I I *D gf180mcu_fd_sc_mcu7t5v0__antenna
*CAP
1 in[13] 0.000675445
2 *293:I 0
3 *100:I 0.000218403
4 *6:5 0.000893848
5 *100:I *101:I 0.000757147
6 *100:I *104:I 8.44601e-05
7 *100:I *273:A1 0.000190269
8 *100:I *275:A1 3.38425e-05
9 *100:I *297:I 3.54696e-05
10 *100:I *10:9 0.00042908
11 *100:I *81:10 0.000433797
12 *6:5 *7:5 0.000128113
13 *6:5 *79:12 7.98315e-06
*RES
1 in[13] *6:5 5.085 
2 *6:5 *100:I 17.82 
3 *6:5 *293:I 4.5 
*END

*D_NET *7 0.00326679
*CONN
*P in[14] I
*I *294:I I *D gf180mcu_fd_sc_mcu7t5v0__clkbuf_1
*I *101:I I *D gf180mcu_fd_sc_mcu7t5v0__antenna
*CAP
1 in[14] 0.000637632
2 *294:I 0
3 *101:I 0.000268574
4 *7:5 0.000906205
5 *101:I *104:I 0.000116398
6 *101:I *273:A1 0.000440867
7 *7:5 *267:A2 1.0415e-05
8 *7:5 *275:A1 1.4382e-06
9 *100:I *101:I 0.000757147
10 *6:5 *7:5 0.000128113
*RES
1 in[14] *7:5 4.905 
2 *7:5 *101:I 16.65 
3 *7:5 *294:I 4.5 
*END

*D_NET *8 0.00477739
*CONN
*P in[15] I
*I *295:I I *D gf180mcu_fd_sc_mcu7t5v0__clkbuf_1
*I *102:I I *D gf180mcu_fd_sc_mcu7t5v0__antenna
*CAP
1 in[15] 0.00201038
2 *295:I 0
3 *102:I 0.000169845
4 *8:9 0.00218023
5 *102:I *104:I 0
6 *102:I *81:10 0.000180811
7 *8:9 out[10] 0.000196323
8 *8:9 *275:A1 0
9 *8:9 *81:10 3.97987e-05
*RES
1 in[15] *8:9 20.835 
2 *8:9 *102:I 5.94 
3 *8:9 *295:I 4.5 
*END

*D_NET *9 0.00495181
*CONN
*P in[16] I
*I *296:I I *D gf180mcu_fd_sc_mcu7t5v0__clkbuf_1
*I *103:I I *D gf180mcu_fd_sc_mcu7t5v0__antenna
*CAP
1 in[16] 0.000927052
2 *296:I 5.14404e-05
3 *103:I 6.50212e-05
4 *9:5 0.00104351
5 *103:I *85:I 0.000372597
6 *103:I *275:A2 4.217e-05
7 *103:I *10:9 0
8 *296:I *267:A2 5.78854e-06
9 *296:I *271:A2 4.6613e-06
10 *296:I *275:A2 1.86887e-06
11 *296:I *276:I 1.4382e-06
12 *9:5 out[7] 5.34206e-05
13 *9:5 *85:I 0.000525823
14 *9:5 *270:I 8.25267e-05
15 *9:5 *274:I 0.000279645
16 *9:5 *275:A2 5.10056e-05
17 *9:5 *275:A3 7.4344e-05
18 *9:5 *10:9 5.47934e-05
19 *9:5 *11:9 0.00099385
20 *9:5 *77:10 4.71078e-05
21 *9:5 *77:12 0.000273749
*RES
1 in[16] *9:5 10.125 
2 *9:5 *103:I 9.99 
3 *9:5 *296:I 9.27 
*END

*D_NET *10 0.00699797
*CONN
*P in[17] I
*I *297:I I *D gf180mcu_fd_sc_mcu7t5v0__clkbuf_1
*I *104:I I *D gf180mcu_fd_sc_mcu7t5v0__antenna
*CAP
1 in[17] 0.00133388
2 *297:I 4.69571e-05
3 *104:I 0.000371141
4 *10:9 0.00175198
5 *297:I *275:A1 5.82468e-05
6 *10:9 out[9] 0.000102289
7 *10:9 *273:A1 5.93659e-05
8 *10:9 *275:A2 9.78042e-05
9 *10:9 *275:A3 0.000279299
10 *10:9 *77:10 0.000302284
11 *10:9 *77:12 0.00187452
12 *100:I *104:I 8.44601e-05
13 *100:I *297:I 3.54696e-05
14 *100:I *10:9 0.00042908
15 *101:I *104:I 0.000116398
16 *102:I *104:I 0
17 *103:I *10:9 0
18 *9:5 *10:9 5.47934e-05
*RES
1 in[17] *10:9 12.825 
2 *10:9 *104:I 11.7 
3 *10:9 *297:I 9.45 
*END

*D_NET *11 0.00569381
*CONN
*P in[18] I
*I *279:I I *D gf180mcu_fd_sc_mcu7t5v0__clkbuf_1
*I *85:I I *D gf180mcu_fd_sc_mcu7t5v0__antenna
*CAP
1 in[18] 0.00113899
2 *279:I 0
3 *85:I 0.000187519
4 *11:9 0.00132651
5 *85:I *269:A1 0.000467212
6 *85:I *81:10 3.29946e-05
7 *11:9 out[10] 0.000341985
8 *11:9 out[11] 0
9 *11:9 out[9] 0
10 *11:9 *268:I 0
11 *11:9 *269:A1 0.000176497
12 *11:9 *270:I 2.31069e-05
13 *11:9 *299:I 0.000106733
14 *103:I *85:I 0.000372597
15 *9:5 *85:I 0.000525823
16 *9:5 *11:9 0.00099385
*RES
1 in[18] *11:9 14.535 
2 *11:9 *85:I 12.15 
3 *11:9 *279:I 9 
*END

*D_NET *12 0.00104616
*CONN
*P in[1] I
*I *86:I I *D gf180mcu_fd_sc_mcu7t5v0__antenna
*I *280:I I *D gf180mcu_fd_sc_mcu7t5v0__clkbuf_1
*CAP
1 in[1] 0.000173358
2 *86:I 0.000291439
3 *280:I 0
4 *12:5 0.000464797
5 *86:I *92:I 2.31018e-05
6 *86:I *18:5 3.63336e-05
7 *12:5 *18:5 5.71292e-05
*RES
1 in[1] *12:5 1.665 
2 *12:5 *280:I 9 
3 *12:5 *86:I 11.07 
*END

*D_NET *13 0.00109949
*CONN
*P in[2] I
*I *87:I I *D gf180mcu_fd_sc_mcu7t5v0__antenna
*I *281:I I *D gf180mcu_fd_sc_mcu7t5v0__clkbuf_1
*CAP
1 in[2] 0.000158756
2 *87:I 0.000213672
3 *281:I 5.19339e-05
4 *13:5 0.000424361
5 *87:I *90:I 3.17959e-05
6 *87:I *91:I 3.56105e-05
7 *87:I *254:A2 2.31089e-05
8 *87:I *16:5 1.18076e-06
9 *281:I *250:A2 4.45837e-05
10 *13:5 *91:I 3.08806e-06
11 *13:5 *16:5 5.42682e-05
12 *13:5 *17:5 5.71292e-05
*RES
1 in[2] *13:5 1.665 
2 *13:5 *281:I 9.45 
3 *13:5 *87:I 10.62 
*END

*D_NET *14 0.00196136
*CONN
*P in[3] I
*I *88:I I *D gf180mcu_fd_sc_mcu7t5v0__antenna
*I *282:I I *D gf180mcu_fd_sc_mcu7t5v0__clkbuf_1
*CAP
1 in[3] 0.000165252
2 *88:I 0.000423564
3 *282:I 8.58398e-05
4 *14:5 0.000674656
5 *88:I *89:I 6.84221e-05
6 *88:I *92:I 8.60605e-06
7 *88:I *93:I 2.2902e-05
8 *88:I *250:A1 0.000129012
9 *88:I *286:I 0.000169524
10 *88:I *18:5 3.03846e-05
11 *282:I *250:A1 1.51153e-05
12 *282:I *254:A1 5.82028e-05
13 *14:5 *89:I 4.34199e-06
14 *14:5 *18:5 5.71292e-05
15 *14:5 *19:9 4.84125e-05
*RES
1 in[3] *14:5 1.665 
2 *14:5 *282:I 9.63 
3 *14:5 *88:I 12.24 
*END

*D_NET *15 0.00315049
*CONN
*P in[4] I
*I *89:I I *D gf180mcu_fd_sc_mcu7t5v0__antenna
*I *283:I I *D gf180mcu_fd_sc_mcu7t5v0__clkbuf_1
*CAP
1 in[4] 0.000365985
2 *89:I 0.000171235
3 *283:I 3.22932e-05
4 *15:9 0.000569514
5 *89:I *93:I 0.000485265
6 *89:I *254:A1 0.00103462
7 *89:I *255:A1 2.35972e-05
8 *89:I *19:9 5.79557e-05
9 *283:I *254:A1 3.97987e-05
10 *15:9 *250:A2 0.000104268
11 *15:9 *252:A1 4.95224e-05
12 *15:9 *254:A1 3.98088e-05
13 *15:9 *19:9 4.95932e-05
14 *88:I *89:I 6.84221e-05
15 *2:7 *15:9 5.42682e-05
16 *14:5 *89:I 4.34199e-06
*RES
1 in[4] *15:9 7.695 
2 *15:9 *283:I 4.77 
3 *15:9 *89:I 16.65 
*END

*D_NET *16 0.00121265
*CONN
*P in[5] I
*I *90:I I *D gf180mcu_fd_sc_mcu7t5v0__antenna
*I *284:I I *D gf180mcu_fd_sc_mcu7t5v0__clkbuf_1
*CAP
1 in[5] 0.000206836
2 *90:I 0.000269224
3 *284:I 7.01647e-05
4 *16:5 0.000546225
5 *90:I *254:A2 1.98195e-05
6 *284:I *254:A2 1.31385e-05
7 *87:I *90:I 3.17959e-05
8 *87:I *16:5 1.18076e-06
9 *13:5 *16:5 5.42682e-05
*RES
1 in[5] *16:5 1.665 
2 *16:5 *284:I 9.45 
3 *16:5 *90:I 10.62 
*END

*D_NET *17 0.00157862
*CONN
*P in[6] I
*I *91:I I *D gf180mcu_fd_sc_mcu7t5v0__antenna
*I *285:I I *D gf180mcu_fd_sc_mcu7t5v0__clkbuf_1
*CAP
1 in[6] 0.000147107
2 *91:I 0.000495493
3 *285:I 0
4 *17:5 0.0006426
5 *91:I *254:A2 0.000126472
6 *91:I *33:9 1.39906e-05
7 *17:5 *33:9 5.71292e-05
8 *87:I *91:I 3.56105e-05
9 *13:5 *91:I 3.08806e-06
10 *13:5 *17:5 5.71292e-05
*RES
1 in[6] *17:5 1.665 
2 *17:5 *285:I 9 
3 *17:5 *91:I 12.15 
*END

*D_NET *18 0.00158303
*CONN
*P in[7] I
*I *92:I I *D gf180mcu_fd_sc_mcu7t5v0__antenna
*I *286:I I *D gf180mcu_fd_sc_mcu7t5v0__clkbuf_1
*CAP
1 in[7] 0.00027462
2 *92:I 0.000258873
3 *286:I 1.39127e-05
4 *18:5 0.000547406
5 *92:I *93:I 0
6 *92:I *255:A1 3.39625e-05
7 *286:I *250:A1 7.20436e-05
8 *86:I *92:I 2.31018e-05
9 *86:I *18:5 3.63336e-05
10 *88:I *92:I 8.60605e-06
11 *88:I *286:I 0.000169524
12 *88:I *18:5 3.03846e-05
13 *12:5 *18:5 5.71292e-05
14 *14:5 *18:5 5.71292e-05
*RES
1 in[7] *18:5 2.745 
2 *18:5 *286:I 9.45 
3 *18:5 *92:I 10.62 
*END

*D_NET *19 0.00211752
*CONN
*P in[8] I
*I *287:I I *D gf180mcu_fd_sc_mcu7t5v0__clkbuf_1
*I *93:I I *D gf180mcu_fd_sc_mcu7t5v0__antenna
*CAP
1 in[8] 0.000374977
2 *287:I 0
3 *93:I 0.000121893
4 *19:9 0.000496871
5 *93:I *255:A1 2.66308e-05
6 *19:9 *250:A1 7.62661e-05
7 *19:9 *250:A3 2.93274e-05
8 *19:9 *252:A1 3.54166e-05
9 *19:9 *254:A1 0.000292006
10 *88:I *93:I 2.2902e-05
11 *89:I *93:I 0.000485265
12 *89:I *19:9 5.79557e-05
13 *92:I *93:I 0
14 *14:5 *19:9 4.84125e-05
15 *15:9 *19:9 4.95932e-05
*RES
1 in[8] *19:9 7.875 
2 *19:9 *93:I 14.85 
3 *19:9 *287:I 4.5 
*END

*D_NET *20 0.00231959
*CONN
*P in[9] I
*I *94:I I *D gf180mcu_fd_sc_mcu7t5v0__antenna
*I *288:I I *D gf180mcu_fd_sc_mcu7t5v0__clkbuf_1
*CAP
1 in[9] 0.000536328
2 *94:I 0.000110123
3 *288:I 0.00010556
4 *20:9 0.000752011
5 *94:I *259:A2 5.77481e-05
6 *94:I *62:6 0.000436478
7 *288:I *263:A2 0
8 *20:9 out[2] 0.000140746
9 *20:9 *259:A2 1.17652e-05
10 *20:9 *62:6 9.84908e-05
11 *3:9 *20:9 7.03427e-05
*RES
1 in[9] *20:9 4.905 
2 *20:9 *288:I 14.13 
3 *20:9 *94:I 5.94 
*END

*D_NET *21 0.00133724
*CONN
*P out[0] O
*I *298:Z O *D gf180mcu_fd_sc_mcu7t5v0__buf_1
*CAP
1 out[0] 0.000439756
2 *298:Z 0.000439756
3 *97:I out[0] 8.05869e-05
4 *1:13 out[0] 0.000102196
5 *3:9 out[0] 0.000274944
*RES
1 *298:Z out[0] 9.135 
*END

*D_NET *22 0.00221623
*CONN
*P out[10] O
*I *299:Z O *D gf180mcu_fd_sc_mcu7t5v0__buf_8
*CAP
1 out[10] 0.000767164
2 *299:Z 0.000767164
3 out[10] out[11] 0.000143595
4 out[10] *273:A1 0
5 *8:9 out[10] 0.000196323
6 *11:9 out[10] 0.000341985
*RES
1 *299:Z out[10] 16.875 
*END

*D_NET *23 0.00277695
*CONN
*P out[11] O
*I *300:Z O *D gf180mcu_fd_sc_mcu7t5v0__buf_8
*CAP
1 out[11] 0.000966613
2 *300:Z 0.000966613
3 out[11] out[9] 0.000500805
4 out[11] *273:A1 9.8379e-05
5 out[11] *274:I 0.000100942
6 out[10] out[11] 0.000143595
7 *11:9 out[11] 0
*RES
1 *300:Z out[11] 16.965 
*END

*D_NET *24 0.00200402
*CONN
*P out[1] O
*I *301:Z O *D gf180mcu_fd_sc_mcu7t5v0__buf_8
*CAP
1 out[1] 0.000865804
2 *301:Z 0.000865804
3 out[1] out[2] 0.000260411
4 out[1] *263:A2 0
5 out[1] *301:I 1.20019e-05
*RES
1 *301:Z out[1] 20.295 
*END

*D_NET *25 0.00253825
*CONN
*P out[2] O
*I *302:Z O *D gf180mcu_fd_sc_mcu7t5v0__buf_8
*CAP
1 out[2] 0.000919307
2 *302:Z 0.000919307
3 out[2] *263:A2 0.000222514
4 out[2] *301:I 0
5 out[2] *62:6 7.59619e-05
6 out[1] out[2] 0.000260411
7 *20:9 out[2] 0.000140746
*RES
1 *302:Z out[2] 21.915 
*END

*D_NET *26 0.00165543
*CONN
*P out[3] O
*I *303:Z O *D gf180mcu_fd_sc_mcu7t5v0__buf_8
*CAP
1 out[3] 0.000596935
2 *303:Z 0.000596935
3 out[3] out[4] 6.09277e-05
4 out[3] *264:I 0.000271044
5 out[3] *276:I 1.52092e-05
6 out[3] *308:I 7.17045e-05
7 *5:9 out[3] 4.26716e-05
*RES
1 *303:Z out[3] 13.365 
*END

*D_NET *27 0.00249507
*CONN
*P out[4] O
*I *304:Z O *D gf180mcu_fd_sc_mcu7t5v0__buf_8
*CAP
1 out[4] 0.000651915
2 *304:Z 0.000651915
3 out[4] out[5] 6.04735e-05
4 out[4] *300:I 0.000647815
5 out[4] *308:I 0.000422026
6 out[3] out[4] 6.09277e-05
*RES
1 *304:Z out[4] 14.535 
*END

*D_NET *28 0.00221465
*CONN
*P out[5] O
*I *305:Z O *D gf180mcu_fd_sc_mcu7t5v0__buf_8
*CAP
1 out[5] 0.00054545
2 *305:Z 0.00054545
3 out[5] out[6] 5.79616e-05
4 out[5] *300:I 3.65263e-05
5 out[5] *308:I 0.000158788
6 out[5] *72:10 0.000810004
7 out[4] out[5] 6.04735e-05
*RES
1 *305:Z out[5] 13.635 
*END

*D_NET *29 0.00192201
*CONN
*P out[6] O
*I *306:Z O *D gf180mcu_fd_sc_mcu7t5v0__buf_8
*CAP
1 out[6] 0.000631327
2 *306:Z 0.000631327
3 out[6] out[8] 0.000140538
4 out[6] *264:I 5.15867e-05
5 out[6] *270:I 1.86887e-06
6 out[6] *272:I 0.000104683
7 out[6] *300:I 4.83522e-05
8 out[6] *308:I 3.49823e-05
9 out[6] *72:10 2.57662e-05
10 out[6] *75:12 0.000193622
11 out[5] out[6] 5.79616e-05
*RES
1 *306:Z out[6] 14.355 
*END

*D_NET *30 0.00177583
*CONN
*P out[7] O
*I *307:Z O *D gf180mcu_fd_sc_mcu7t5v0__buf_8
*CAP
1 out[7] 0.000727022
2 *307:Z 0.000727022
3 out[7] out[8] 7.72016e-06
4 out[7] *268:I 1.47998e-05
5 out[7] *270:I 0.00010044
6 out[7] *272:I 0.000145403
7 out[7] *308:I 0
8 *9:5 out[7] 5.34206e-05
*RES
1 *307:Z out[7] 13.905 
*END

*D_NET *31 0.00269991
*CONN
*P out[8] O
*I *308:Z O *D gf180mcu_fd_sc_mcu7t5v0__buf_8
*CAP
1 out[8] 0.000747464
2 *308:Z 0.000747464
3 out[8] *268:I 0.000304508
4 out[8] *274:I 0.000180811
5 out[8] *308:I 0
6 out[8] *75:12 0.000571404
7 out[8] *75:18 0
8 out[6] out[8] 0.000140538
9 out[7] out[8] 7.72016e-06
*RES
1 *308:Z out[8] 16.515 
*END

*D_NET *32 0.00222457
*CONN
*P out[9] O
*I *309:Z O *D gf180mcu_fd_sc_mcu7t5v0__buf_8
*CAP
1 out[9] 0.000668614
2 *309:Z 0.000668614
3 out[9] *273:A1 0.000284248
4 out[11] out[9] 0.000500805
5 *10:9 out[9] 0.000102289
6 *11:9 out[9] 0
*RES
1 *309:Z out[9] 14.715 
*END

*D_NET *33 0.00220599
*CONN
*P rst_n I
*I *96:I I *D gf180mcu_fd_sc_mcu7t5v0__antenna
*I *290:I I *D gf180mcu_fd_sc_mcu7t5v0__clkbuf_1
*CAP
1 rst_n 0.000378201
2 *96:I 0.000149842
3 *290:I 5.83526e-05
4 *33:9 0.000586395
5 *96:I *253:A2 0
6 *290:I *254:A2 2.09122e-05
7 *33:9 *251:A1 1.0415e-05
8 *33:9 *251:A2 7.39648e-05
9 *33:9 *254:A2 0.000299714
10 *91:I *33:9 1.39906e-05
11 *95:I *33:9 0.000497814
12 *2:7 *33:9 5.92636e-05
13 *17:5 *33:9 5.71292e-05
*RES
1 rst_n *33:9 8.595 
2 *33:9 *290:I 4.95 
3 *33:9 *96:I 5.49 
*END

*D_NET *36 0.000386303
*CONN
*I *253:A1 I *D gf180mcu_fd_sc_mcu7t5v0__xor3_1
*I *250:Z O *D gf180mcu_fd_sc_mcu7t5v0__xor3_1
*CAP
1 *253:A1 0.000184165
2 *250:Z 0.000184165
3 *253:A1 *253:A3 1.79733e-05
*RES
1 *250:Z *253:A1 10.26 
*END

*D_NET *37 0.00058103
*CONN
*I *253:A2 I *D gf180mcu_fd_sc_mcu7t5v0__xor3_1
*I *251:Z O *D gf180mcu_fd_sc_mcu7t5v0__xor2_1
*CAP
1 *253:A2 0.000250109
2 *251:Z 0.000250109
3 *253:A2 *250:A3 0
4 *253:A2 *251:A1 8.08126e-05
5 *96:I *253:A2 0
*RES
1 *251:Z *253:A2 10.98 
*END

*D_NET *38 0.000651522
*CONN
*I *253:A3 I *D gf180mcu_fd_sc_mcu7t5v0__xor3_1
*I *252:Z O *D gf180mcu_fd_sc_mcu7t5v0__xor2_1
*CAP
1 *253:A3 9.85402e-05
2 *252:Z 9.85402e-05
3 *253:A3 *252:A2 0.000436469
4 *253:A1 *253:A3 1.79733e-05
*RES
1 *252:Z *253:A3 10.17 
*END

*D_NET *39 0.000647849
*CONN
*I *255:A2 I *D gf180mcu_fd_sc_mcu7t5v0__xor3_1
*I *253:Z O *D gf180mcu_fd_sc_mcu7t5v0__xor3_1
*CAP
1 *255:A2 0.000100734
2 *253:Z 0.000100734
3 *255:A2 *252:A2 1.86887e-06
4 *255:A2 *255:A1 0.000444513
*RES
1 *253:Z *255:A2 10.17 
*END

*D_NET *40 0.000439926
*CONN
*I *255:A3 I *D gf180mcu_fd_sc_mcu7t5v0__xor3_1
*I *254:Z O *D gf180mcu_fd_sc_mcu7t5v0__xor2_1
*CAP
1 *255:A3 0.000170022
2 *254:Z 0.000170022
3 *255:A3 *254:A2 0
4 *255:A3 *256:I 9.98816e-05
*RES
1 *254:Z *255:A3 10.35 
*END

*D_NET *41 0.0014055
*CONN
*I *256:I I *D gf180mcu_fd_sc_mcu7t5v0__clkbuf_2
*I *255:Z O *D gf180mcu_fd_sc_mcu7t5v0__xor3_1
*CAP
1 *256:I 0.000478373
2 *255:Z 0.000478373
3 *256:I *254:A1 0
4 *256:I *258:I 0.000192205
5 *256:I *259:A2 1.06178e-05
6 *256:I *263:A1 0
7 *256:I *298:I 1.32722e-05
8 *256:I *302:I 0.000132772
9 *255:A3 *256:I 9.98816e-05
*RES
1 *255:Z *256:I 13.32 
*END

*D_NET *42 0.00063105
*CONN
*I *258:I I *D gf180mcu_fd_sc_mcu7t5v0__clkbuf_1
*I *257:Z O *D gf180mcu_fd_sc_mcu7t5v0__xor2_1
*CAP
1 *258:I 0.000219423
2 *257:Z 0.000219423
3 *258:I *257:A1 0
4 *258:I *263:A2 0
5 *256:I *258:I 0.000192205
*RES
1 *257:Z *258:I 10.98 
*END

*D_NET *43 0.00044075
*CONN
*I *260:I I *D gf180mcu_fd_sc_mcu7t5v0__clkbuf_2
*I *259:Z O *D gf180mcu_fd_sc_mcu7t5v0__xor3_1
*CAP
1 *260:I 0.000220375
2 *259:Z 0.000220375
*RES
1 *259:Z *260:I 10.53 
*END

*D_NET *44 0.000810821
*CONN
*I *262:I I *D gf180mcu_fd_sc_mcu7t5v0__clkbuf_1
*I *261:Z O *D gf180mcu_fd_sc_mcu7t5v0__xor2_1
*CAP
1 *262:I 0.00032953
2 *261:Z 0.00032953
3 *262:I *261:A2 7.82936e-05
4 *262:I *304:I 1.07374e-05
5 *262:I *70:6 6.27295e-05
*RES
1 *261:Z *262:I 11.25 
*END

*D_NET *45 0.0054729
*CONN
*I *264:I I *D gf180mcu_fd_sc_mcu7t5v0__clkbuf_2
*I *263:Z O *D gf180mcu_fd_sc_mcu7t5v0__xor3_1
*CAP
1 *264:I 0.000550916
2 *263:Z 0.000550916
3 *264:I *263:A1 0.000247379
4 *264:I *263:A3 0.000309984
5 *264:I *270:I 0.000879492
6 *264:I *276:I 0.00203283
7 *264:I *300:I 9.00163e-05
8 *264:I *306:I 0
9 *264:I *308:I 0.00048874
10 out[3] *264:I 0.000271044
11 out[6] *264:I 5.15867e-05
*RES
1 *263:Z *264:I 27.18 
*END

*D_NET *46 0.000593421
*CONN
*I *266:I I *D gf180mcu_fd_sc_mcu7t5v0__clkbuf_1
*I *265:Z O *D gf180mcu_fd_sc_mcu7t5v0__xor2_1
*CAP
1 *266:I 0.000241977
2 *265:Z 0.000241977
3 *266:I *267:A1 2.91887e-05
4 *266:I *267:A3 4.04802e-05
5 *266:I *276:I 3.97987e-05
*RES
1 *265:Z *266:I 19.71 
*END

*D_NET *47 0.00204993
*CONN
*I *268:I I *D gf180mcu_fd_sc_mcu7t5v0__clkbuf_2
*I *267:Z O *D gf180mcu_fd_sc_mcu7t5v0__xor3_1
*CAP
1 *268:I 0.000778876
2 *267:Z 0.000778876
3 *268:I *265:A1 9.84908e-05
4 *268:I *267:A3 2.1117e-05
5 *268:I *269:A1 0
6 *268:I *269:A2 2.31089e-05
7 *268:I *270:I 0
8 *268:I *75:18 0
9 *268:I *79:12 3.01487e-05
10 out[7] *268:I 1.47998e-05
11 out[8] *268:I 0.000304508
12 *11:9 *268:I 0
*RES
1 *267:Z *268:I 23.94 
*END

*D_NET *48 0.00726363
*CONN
*I *270:I I *D gf180mcu_fd_sc_mcu7t5v0__clkbuf_1
*I *269:Z O *D gf180mcu_fd_sc_mcu7t5v0__xor2_1
*CAP
1 *270:I 0.00110077
2 *269:Z 0.00110077
3 *270:I *272:I 0.00109835
4 *270:I *274:I 0.0010464
5 *270:I *276:I 9.85004e-05
6 *270:I *299:I 3.22122e-05
7 *270:I *300:I 0.000701544
8 *270:I *308:I 0.000150567
9 *270:I *75:12 0.000567809
10 out[6] *270:I 1.86887e-06
11 out[7] *270:I 0.00010044
12 *264:I *270:I 0.000879492
13 *268:I *270:I 0
14 *5:9 *270:I 0.000279287
15 *9:5 *270:I 8.25267e-05
16 *11:9 *270:I 2.31069e-05
*RES
1 *269:Z *270:I 31.77 
*END

*D_NET *49 0.00634785
*CONN
*I *272:I I *D gf180mcu_fd_sc_mcu7t5v0__clkbuf_2
*I *271:Z O *D gf180mcu_fd_sc_mcu7t5v0__xor3_1
*CAP
1 *272:I 0.000912557
2 *271:Z 0.000912557
3 *272:I *271:A3 0.000255088
4 *272:I *273:A2 3.01487e-05
5 *272:I *274:I 8.93164e-05
6 *272:I *300:I 2.79072e-05
7 *272:I *306:I 0
8 *272:I *308:I 0
9 *272:I *72:10 0.00181126
10 *272:I *75:12 5.34184e-05
11 *272:I *75:18 0.000902504
12 *272:I *77:10 4.6613e-06
13 out[6] *272:I 0.000104683
14 out[7] *272:I 0.000145403
15 *270:I *272:I 0.00109835
*RES
1 *271:Z *272:I 29.34 
*END

*D_NET *50 0.00349946
*CONN
*I *274:I I *D gf180mcu_fd_sc_mcu7t5v0__clkbuf_1
*I *273:Z O *D gf180mcu_fd_sc_mcu7t5v0__xor2_1
*CAP
1 *274:I 0.000807381
2 *273:Z 0.000807381
3 *274:I *269:A2 0
4 *274:I *273:A2 0.000100101
5 *274:I *299:I 8.74849e-05
6 *274:I *308:I 0
7 out[11] *274:I 0.000100942
8 out[8] *274:I 0.000180811
9 *270:I *274:I 0.0010464
10 *272:I *274:I 8.93164e-05
11 *9:5 *274:I 0.000279645
*RES
1 *273:Z *274:I 26.19 
*END

*D_NET *51 0.00733492
*CONN
*I *276:I I *D gf180mcu_fd_sc_mcu7t5v0__clkbuf_1
*I *275:Z O *D gf180mcu_fd_sc_mcu7t5v0__xor3_1
*CAP
1 *276:I 0.00185189
2 *275:Z 0.00185189
3 *276:I *257:A1 0
4 *276:I *257:A2 0
5 *276:I *261:A1 0
6 *276:I *263:A1 0.000610329
7 *276:I *263:A3 2.26729e-05
8 *276:I *267:A3 6.84043e-05
9 *276:I *269:A2 0
10 *276:I *271:A2 4.2697e-05
11 *276:I *271:A3 5.29035e-05
12 *276:I *275:A2 0.00021369
13 *276:I *302:I 0
14 *276:I *306:I 0.000275155
15 *276:I *308:I 2.08301e-05
16 *276:I *74:16 9.26419e-06
17 *276:I *79:12 0.000127419
18 out[3] *276:I 1.52092e-05
19 *264:I *276:I 0.00203283
20 *266:I *276:I 3.97987e-05
21 *270:I *276:I 9.85004e-05
22 *296:I *276:I 1.4382e-06
23 *4:9 *276:I 0
*RES
1 *275:Z *276:I 34.47 
*END

*D_NET *52 0.000906311
*CONN
*I *251:A1 I *D gf180mcu_fd_sc_mcu7t5v0__xor2_1
*I *278:Z O *D gf180mcu_fd_sc_mcu7t5v0__clkbuf_1
*CAP
1 *251:A1 0.00023339
2 *278:Z 0.00023339
3 *251:A1 *250:A2 4.29496e-05
4 *251:A1 *251:A2 9.04462e-05
5 *251:A1 *252:A2 0.000214908
6 *253:A2 *251:A1 8.08126e-05
7 *33:9 *251:A1 1.0415e-05
*RES
1 *278:Z *251:A1 11.52 
*END

*D_NET *53 0.000982209
*CONN
*I *275:A2 I *D gf180mcu_fd_sc_mcu7t5v0__xor3_1
*I *279:Z O *D gf180mcu_fd_sc_mcu7t5v0__clkbuf_1
*CAP
1 *275:A2 0.00026735
2 *279:Z 0.00026735
3 *275:A2 *267:A2 0
4 *275:A2 *275:A3 3.58674e-05
5 *275:A2 *79:12 5.10405e-06
6 *103:I *275:A2 4.217e-05
7 *276:I *275:A2 0.00021369
8 *296:I *275:A2 1.86887e-06
9 *9:5 *275:A2 5.10056e-05
10 *10:9 *275:A2 9.78042e-05
*RES
1 *279:Z *275:A2 20.52 
*END

*D_NET *54 0.00194745
*CONN
*I *250:A1 I *D gf180mcu_fd_sc_mcu7t5v0__xor3_1
*I *280:Z O *D gf180mcu_fd_sc_mcu7t5v0__clkbuf_1
*CAP
1 *250:A1 0.000464101
2 *280:Z 0.000464101
3 *250:A1 *250:A2 3.22348e-05
4 *250:A1 *250:A3 4.50101e-05
5 *250:A1 *252:A1 0.00054757
6 *250:A1 *254:A1 0.000101995
7 *88:I *250:A1 0.000129012
8 *282:I *250:A1 1.51153e-05
9 *286:I *250:A1 7.20436e-05
10 *19:9 *250:A1 7.62661e-05
*RES
1 *280:Z *250:A1 13.5 
*END

*D_NET *55 0.0029762
*CONN
*I *250:A2 I *D gf180mcu_fd_sc_mcu7t5v0__xor3_1
*I *281:Z O *D gf180mcu_fd_sc_mcu7t5v0__clkbuf_1
*CAP
1 *250:A2 0.000479152
2 *281:Z 0.000479152
3 *250:A2 *252:A1 0.000106536
4 *250:A2 *252:A2 0.000676803
5 *250:A2 *254:A2 0.000554618
6 *95:I *250:A2 0.00035741
7 *250:A1 *250:A2 3.22348e-05
8 *251:A1 *250:A2 4.29496e-05
9 *278:I *250:A2 9.84908e-05
10 *281:I *250:A2 4.45837e-05
11 *15:9 *250:A2 0.000104268
*RES
1 *281:Z *250:A2 14.85 
*END

*D_NET *56 0.00431492
*CONN
*I *254:A1 I *D gf180mcu_fd_sc_mcu7t5v0__xor2_1
*I *282:Z O *D gf180mcu_fd_sc_mcu7t5v0__clkbuf_1
*CAP
1 *254:A1 0.00115186
2 *282:Z 0.00115186
3 *254:A1 *252:A1 0.000444785
4 *254:A1 *255:A1 0
5 *89:I *254:A1 0.00103462
6 *250:A1 *254:A1 0.000101995
7 *256:I *254:A1 0
8 *282:I *254:A1 5.82028e-05
9 *283:I *254:A1 3.97987e-05
10 *15:9 *254:A1 3.98088e-05
11 *19:9 *254:A1 0.000292006
*RES
1 *282:Z *254:A1 28.44 
*END

*D_NET *57 0.00269637
*CONN
*I *252:A1 I *D gf180mcu_fd_sc_mcu7t5v0__xor2_1
*I *283:Z O *D gf180mcu_fd_sc_mcu7t5v0__clkbuf_1
*CAP
1 *252:A1 0.000756271
2 *283:Z 0.000756271
3 *252:A1 *252:A2 0
4 *250:A1 *252:A1 0.00054757
5 *250:A2 *252:A1 0.000106536
6 *254:A1 *252:A1 0.000444785
7 *15:9 *252:A1 4.95224e-05
8 *19:9 *252:A1 3.54166e-05
*RES
1 *283:Z *252:A1 23.94 
*END

*D_NET *58 0.00439207
*CONN
*I *254:A2 I *D gf180mcu_fd_sc_mcu7t5v0__xor2_1
*I *284:Z O *D gf180mcu_fd_sc_mcu7t5v0__clkbuf_1
*CAP
1 *254:A2 0.00124474
2 *284:Z 0.00124474
3 *254:A2 *251:A2 0.000294431
4 *254:A2 *252:A2 0.000302466
5 *254:A2 *255:A1 3.09969e-05
6 *87:I *254:A2 2.31089e-05
7 *90:I *254:A2 1.98195e-05
8 *91:I *254:A2 0.000126472
9 *95:I *254:A2 0.000216907
10 *250:A2 *254:A2 0.000554618
11 *255:A3 *254:A2 0
12 *284:I *254:A2 1.31385e-05
13 *290:I *254:A2 2.09122e-05
14 *33:9 *254:A2 0.000299714
*RES
1 *284:Z *254:A2 28.8 
*END

*D_NET *59 0.00350186
*CONN
*I *252:A2 I *D gf180mcu_fd_sc_mcu7t5v0__xor2_1
*I *285:Z O *D gf180mcu_fd_sc_mcu7t5v0__clkbuf_1
*CAP
1 *252:A2 0.000872347
2 *285:Z 0.000872347
3 *252:A2 *251:A2 4.45215e-05
4 *252:A2 *255:A1 2.73782e-05
5 *95:I *252:A2 5.27533e-05
6 *250:A2 *252:A2 0.000676803
7 *251:A1 *252:A2 0.000214908
8 *252:A1 *252:A2 0
9 *253:A3 *252:A2 0.000436469
10 *254:A2 *252:A2 0.000302466
11 *255:A2 *252:A2 1.86887e-06
*RES
1 *285:Z *252:A2 25.65 
*END

*D_NET *60 0.00309568
*CONN
*I *255:A1 I *D gf180mcu_fd_sc_mcu7t5v0__xor3_1
*I *286:Z O *D gf180mcu_fd_sc_mcu7t5v0__clkbuf_1
*CAP
1 *255:A1 0.0012543
2 *286:Z 0.0012543
3 *89:I *255:A1 2.35972e-05
4 *92:I *255:A1 3.39625e-05
5 *93:I *255:A1 2.66308e-05
6 *252:A2 *255:A1 2.73782e-05
7 *254:A1 *255:A1 0
8 *254:A2 *255:A1 3.09969e-05
9 *255:A2 *255:A1 0.000444513
*RES
1 *286:Z *255:A1 26.82 
*END

*D_NET *61 0.000888034
*CONN
*I *250:A3 I *D gf180mcu_fd_sc_mcu7t5v0__xor3_1
*I *287:Z O *D gf180mcu_fd_sc_mcu7t5v0__clkbuf_1
*CAP