*SPEF "ieee 1481-1999"
*DESIGN "mux_wrapper"
*DATE "11:11:11 Fri 11 11, 1111"
*VENDOR "OpenRCX"
*PROGRAM "Parallel Extraction"
*VERSION "1.0"
*DESIGN_FLOW "NAME_SCOPE LOCAL" "PIN_CAP NONE"
*DIVIDER /
*DELIMITER :
*BUS_DELIMITER []
*T_UNIT 1 NS
*C_UNIT 1 PF
*R_UNIT 1 OHM
*L_UNIT 1 HENRY

*NAME_MAP
*1 clk
*2 in[0]
*3 in[10]
*4 in[11]
*5 in[12]
*6 in[13]
*7 in[14]
*8 in[15]
*9 in[16]
*10 in[17]
*11 in[18]
*12 in[1]
*13 in[2]
*14 in[3]
*15 in[4]
*16 in[5]
*17 in[6]
*18 in[7]
*19 in[8]
*20 in[9]
*21 io_in[0]
*22 io_in[10]
*23 io_in[11]
*24 io_in[12]
*25 io_in[13]
*26 io_in[14]
*27 io_in[15]
*28 io_in[16]
*29 io_in[17]
*30 io_in[18]
*31 io_in[19]
*32 io_in[1]
*33 io_in[20]
*34 io_in[21]
*35 io_in[22]
*36 io_in[23]
*37 io_in[24]
*38 io_in[25]
*39 io_in[26]
*40 io_in[27]
*41 io_in[28]
*42 io_in[29]
*43 io_in[2]
*44 io_in[30]
*45 io_in[31]
*46 io_in[32]
*47 io_in[33]
*48 io_in[34]
*49 io_in[35]
*50 io_in[36]
*51 io_in[37]
*52 io_in[3]
*53 io_in[4]
*54 io_in[5]
*55 io_in[6]
*56 io_in[7]
*57 io_in[8]
*58 io_in[9]
*59 net227
*60 net211
*61 net212
*62 net213
*63 net214
*64 net215
*65 net216
*66 net217
*67 net218
*68 net219
*69 net220
*70 net228
*71 net221
*72 net222
*73 net223
*74 net224
*75 net225
*76 net226
*77 net70
*78 net71
*79 net72
*80 net73
*81 net229
*82 net74
*83 net75
*84 net76
*85 net77
*86 net78
*87 net79
*88 net80
*89 net81
*90 net230
*91 net231
*92 net232
*93 net233
*94 net208
*95 net209
*96 net210
*97 net82
*98 net92
*99 net93
*100 net94
*101 net95
*102 net96
*103 net97
*104 net98
*105 net99
*106 net100
*107 net101
*108 net83
*109 net102
*110 net103
*111 net104
*112 net105
*113 net106
*114 net107
*115 io_out[26]
*116 io_out[27]
*117 io_out[28]
*118 io_out[29]
*119 net84
*120 io_out[30]
*121 io_out[31]
*122 io_out[32]
*123 io_out[33]
*124 io_out[34]
*125 io_out[35]
*126 io_out[36]
*127 io_out[37]
*128 net85
*129 net86
*130 net87
*131 net88
*132 net89
*133 net90
*134 net91
*135 la_data_in[0]
*136 la_data_in[10]
*137 la_data_in[11]
*138 la_data_in[12]
*139 la_data_in[13]
*140 la_data_in[14]
*141 la_data_in[15]
*142 la_data_in[16]
*143 la_data_in[17]
*144 la_data_in[18]
*145 la_data_in[19]
*146 la_data_in[1]
*147 la_data_in[20]
*148 la_data_in[21]
*149 la_data_in[22]
*150 la_data_in[23]
*151 la_data_in[24]
*152 la_data_in[25]
*153 la_data_in[26]
*154 la_data_in[27]
*155 la_data_in[28]
*156 la_data_in[29]
*157 la_data_in[2]
*158 la_data_in[30]
*159 la_data_in[31]
*160 la_data_in[32]
*161 la_data_in[33]
*162 la_data_in[34]
*163 la_data_in[35]
*164 la_data_in[36]
*165 la_data_in[37]
*166 la_data_in[38]
*167 la_data_in[39]
*168 la_data_in[3]
*169 la_data_in[40]
*170 la_data_in[41]
*171 la_data_in[42]
*172 la_data_in[43]
*173 la_data_in[44]
*174 la_data_in[45]
*175 la_data_in[46]
*176 la_data_in[47]
*177 la_data_in[48]
*178 la_data_in[49]
*179 la_data_in[4]
*180 la_data_in[50]
*181 la_data_in[51]
*182 la_data_in[52]
*183 la_data_in[53]
*184 la_data_in[54]
*185 la_data_in[55]
*186 la_data_in[56]
*187 la_data_in[57]
*188 la_data_in[58]
*189 la_data_in[59]
*190 la_data_in[5]
*191 la_data_in[60]
*192 la_data_in[61]
*193 la_data_in[62]
*194 la_data_in[63]
*195 la_data_in[6]
*196 la_data_in[7]
*197 la_data_in[8]
*198 la_data_in[9]
*199 net108
*200 net118
*201 net119
*202 net120
*203 net121
*204 net122
*205 net123
*206 net124
*207 net125
*208 net126
*209 net127
*210 net109
*211 net128
*212 net129
*213 net130
*214 net131
*215 net132
*216 net133
*217 net134
*218 net135
*219 net136
*220 net137
*221 net110
*222 net138
*223 net139
*224 net140
*225 net141
*226 net142
*227 net143
*228 net144
*229 net145
*230 net146
*231 net147
*232 net111
*233 net148
*234 net149
*235 net150
*236 net151
*237 net152
*238 net153
*239 net154
*240 net155
*241 net156
*242 net157
*243 net112
*244 net158
*245 net159
*246 net160
*247 net161
*248 net162
*249 net163
*250 net164
*251 net165
*252 net166
*253 net167
*254 net113
*255 net168
*256 net169
*257 net170
*258 net171
*259 net114
*260 net115
*261 net116
*262 net117
*263 la_oenb[0]
*264 la_oenb[10]
*265 la_oenb[11]
*266 la_oenb[12]
*267 la_oenb[13]
*268 la_oenb[14]
*269 la_oenb[15]
*270 la_oenb[16]
*271 la_oenb[17]
*272 la_oenb[18]
*273 la_oenb[19]
*274 la_oenb[1]
*275 la_oenb[20]
*276 la_oenb[21]
*277 la_oenb[22]
*278 la_oenb[23]
*279 la_oenb[24]
*280 la_oenb[25]
*281 la_oenb[26]
*282 la_oenb[27]
*283 la_oenb[28]
*284 la_oenb[29]
*285 la_oenb[2]
*286 la_oenb[30]
*287 la_oenb[31]
*288 la_oenb[32]
*289 la_oenb[33]
*290 la_oenb[34]
*291 la_oenb[35]
*292 la_oenb[36]
*293 la_oenb[37]
*294 la_oenb[38]
*295 la_oenb[39]
*296 la_oenb[3]
*297 la_oenb[40]
*298 la_oenb[41]
*299 la_oenb[42]
*300 la_oenb[43]
*301 la_oenb[44]
*302 la_oenb[45]
*303 la_oenb[46]
*304 la_oenb[47]
*305 la_oenb[48]
*306 la_oenb[49]
*307 la_oenb[4]
*308 la_oenb[50]
*309 la_oenb[51]
*310 la_oenb[52]
*311 la_oenb[53]
*312 la_oenb[54]
*313 la_oenb[55]
*314 la_oenb[56]
*315 la_oenb[57]
*316 la_oenb[58]
*317 la_oenb[59]
*318 la_oenb[5]
*319 la_oenb[60]
*320 la_oenb[61]
*321 la_oenb[62]
*322 la_oenb[63]
*323 la_oenb[6]
*324 la_oenb[7]
*325 la_oenb[8]
*326 la_oenb[9]
*327 out[0]
*328 out[10]
*329 out[11]
*330 out[1]
*331 out[2]
*332 out[3]
*333 out[4]
*334 out[5]
*335 out[6]
*336 out[7]
*337 out[8]
*338 out[9]
*339 rst_n
*340 sel[0]
*341 sel[1]
*342 user_clock2
*343 net172
*344 net173
*345 net174
*348 wb_clk_i
*349 wb_rst_i
*350 net175
*351 wbs_adr_i[0]
*352 wbs_adr_i[10]
*353 wbs_adr_i[11]
*354 wbs_adr_i[12]
*355 wbs_adr_i[13]
*356 wbs_adr_i[14]
*357 wbs_adr_i[15]
*358 wbs_adr_i[16]
*359 wbs_adr_i[17]
*360 wbs_adr_i[18]
*361 wbs_adr_i[19]
*362 wbs_adr_i[1]
*363 wbs_adr_i[20]
*364 wbs_adr_i[21]
*365 wbs_adr_i[22]
*366 wbs_adr_i[23]
*367 wbs_adr_i[24]
*368 wbs_adr_i[25]
*369 wbs_adr_i[26]
*370 wbs_adr_i[27]
*371 wbs_adr_i[28]
*372 wbs_adr_i[29]
*373 wbs_adr_i[2]
*374 wbs_adr_i[30]
*375 wbs_adr_i[31]
*376 wbs_adr_i[3]
*377 wbs_adr_i[4]
*378 wbs_adr_i[5]
*379 wbs_adr_i[6]
*380 wbs_adr_i[7]
*381 wbs_adr_i[8]
*382 wbs_adr_i[9]
*383 wbs_cyc_i
*384 wbs_dat_i[0]
*385 wbs_dat_i[10]
*386 wbs_dat_i[11]
*387 wbs_dat_i[12]
*388 wbs_dat_i[13]
*389 wbs_dat_i[14]
*390 wbs_dat_i[15]
*391 wbs_dat_i[16]
*392 wbs_dat_i[17]
*393 wbs_dat_i[18]
*394 wbs_dat_i[19]
*395 wbs_dat_i[1]
*396 wbs_dat_i[20]
*397 wbs_dat_i[21]
*398 wbs_dat_i[22]
*399 wbs_dat_i[23]
*400 wbs_dat_i[24]
*401 wbs_dat_i[25]
*402 wbs_dat_i[26]
*403 wbs_dat_i[27]
*404 wbs_dat_i[28]
*405 wbs_dat_i[29]
*406 wbs_dat_i[2]
*407 wbs_dat_i[30]
*408 wbs_dat_i[31]
*409 wbs_dat_i[3]
*410 wbs_dat_i[4]
*411 wbs_dat_i[5]
*412 wbs_dat_i[6]
*413 wbs_dat_i[7]
*414 wbs_dat_i[8]
*415 wbs_dat_i[9]
*416 net176
*417 net186
*418 net187
*419 net188
*420 net189
*421 net190
*422 net191
*423 net192
*424 net193
*425 net194
*426 net195
*427 net177
*428 net196
*429 net197
*430 net198
*431 net199
*432 net200
*433 net201
*434 net202
*435 net203
*436 net204
*437 net205
*438 net178
*439 net206
*440 net207
*441 net179
*442 net180
*443 net181
*444 net182
*445 net183
*446 net184
*447 net185
*448 wbs_sel_i[0]
*449 wbs_sel_i[1]
*450 wbs_sel_i[2]
*451 wbs_sel_i[3]
*452 wbs_stb_i
*453 wbs_we_i
*454 net1
*455 net10
*456 net11
*457 net12
*458 net13
*459 net14
*460 net15
*461 net16
*462 net17
*463 net18
*464 net19
*465 net2
*466 net20
*467 net21
*468 net22
*469 net23
*470 net24
*471 net25
*472 net26
*473 net27
*474 net28
*475 net29
*476 net3
*477 net30
*478 net31
*479 net32
*480 net33
*481 net34
*482 net35
*483 net36
*484 net37
*485 net38
*486 net39
*487 net4
*488 net40
*489 net41
*490 net42
*491 net43
*492 net44
*493 net45
*494 net46
*495 net47
*496 net48
*497 net49
*498 net5
*499 net50
*500 net51
*501 net52
*502 net53
*503 net54
*504 net55
*505 net56
*506 net57
*507 net58
*508 net59
*509 net6
*510 net60
*511 net61
*512 net62
*513 net63
*514 net64
*515 net65
*516 net66
*517 net67
*518 net68
*519 net69
*520 net7
*521 net8
*522 net9
*523 ANTENNA__000__I
*524 ANTENNA__165__I
*525 ANTENNA__166__I
*526 ANTENNA__167__I
*527 ANTENNA__168__I
*528 ANTENNA__169__I
*529 ANTENNA__170__I
*530 ANTENNA__171__I
*531 ANTENNA__172__I
*532 ANTENNA__173__I
*533 ANTENNA__174__I
*534 ANTENNA__175__I
*535 ANTENNA__176__I
*536 ANTENNA__177__I
*537 ANTENNA__178__I
*538 ANTENNA__179__I
*539 ANTENNA__180__I
*540 ANTENNA__181__I
*541 ANTENNA__182__I
*542 ANTENNA__183__I
*543 ANTENNA__184__I
*544 ANTENNA__185__I
*545 ANTENNA__186__I
*546 ANTENNA__187__I
*547 ANTENNA__188__I
*548 ANTENNA__189__I
*549 ANTENNA__190__I
*550 ANTENNA__191__I
*551 ANTENNA__192__I
*552 ANTENNA__193__I
*553 ANTENNA__194__I
*554 ANTENNA__195__I
*555 ANTENNA__196__I
*556 ANTENNA__197__I
*557 ANTENNA__198__I
*558 ANTENNA_input10_I
*559 ANTENNA_input11_I
*560 ANTENNA_input12_I
*561 ANTENNA_input13_I
*562 ANTENNA_input14_I
*563 ANTENNA_input15_I
*564 ANTENNA_input16_I
*565 ANTENNA_input17_I
*566 ANTENNA_input18_I
*567 ANTENNA_input19_I
*568 ANTENNA_input1_I
*569 ANTENNA_input20_I
*570 ANTENNA_input21_I
*571 ANTENNA_input22_I
*572 ANTENNA_input23_I
*573 ANTENNA_input24_I
*574 ANTENNA_input25_I
*575 ANTENNA_input26_I
*576 ANTENNA_input27_I
*577 ANTENNA_input28_I
*578 ANTENNA_input29_I
*579 ANTENNA_input2_I
*580 ANTENNA_input30_I
*581 ANTENNA_input31_I
*582 ANTENNA_input32_I
*583 ANTENNA_input33_I
*584 ANTENNA_input34_I
*585 ANTENNA_input3_I
*586 ANTENNA_input4_I
*587 ANTENNA_input5_I
*588 ANTENNA_input6_I
*589 ANTENNA_input7_I
*590 ANTENNA_input8_I
*591 ANTENNA_input9_I
*592 ANTENNA_output35_I
*593 ANTENNA_output36_I
*594 ANTENNA_output37_I
*595 ANTENNA_output38_I
*596 ANTENNA_output39_I
*597 ANTENNA_output40_I
*598 ANTENNA_output41_I
*599 ANTENNA_output42_I
*600 ANTENNA_output43_I
*601 ANTENNA_output44_I
*602 ANTENNA_output45_I
*603 ANTENNA_output46_I
*604 ANTENNA_output47_I
*605 ANTENNA_output48_I
*606 ANTENNA_output49_I
*607 ANTENNA_output50_I
*608 ANTENNA_output51_I
*609 ANTENNA_output52_I
*610 ANTENNA_output53_I
*611 ANTENNA_output54_I
*612 ANTENNA_output55_I
*613 ANTENNA_output56_I
*614 ANTENNA_output57_I
*615 ANTENNA_output58_I
*616 ANTENNA_output59_I
*617 ANTENNA_output60_I
*618 ANTENNA_output61_I
*619 ANTENNA_output62_I
*620 ANTENNA_output63_I
*621 ANTENNA_output64_I
*622 ANTENNA_output65_I
*623 ANTENNA_output66_I
*624 ANTENNA_output67_I
*625 ANTENNA_output68_I
*626 ANTENNA_output69_I
*627 FILLER_0_0_104
*628 FILLER_0_0_138
*629 FILLER_0_0_172
*630 FILLER_0_0_2
*631 FILLER_0_0_206
*632 FILLER_0_0_222
*633 FILLER_0_0_228
*634 FILLER_0_0_240
*635 FILLER_0_0_257
*636 FILLER_0_0_263
*637 FILLER_0_0_274
*638 FILLER_0_0_276
*639 FILLER_0_0_281
*640 FILLER_0_0_287
*641 FILLER_0_0_293
*642 FILLER_0_0_305
*643 FILLER_0_0_312
*644 FILLER_0_0_317
*645 FILLER_0_0_323
*646 FILLER_0_0_329
*647 FILLER_0_0_335
*648 FILLER_0_0_342
*649 FILLER_0_0_347
*650 FILLER_0_0_353
*651 FILLER_0_0_36
*652 FILLER_0_0_365
*653 FILLER_0_0_367
*654 FILLER_0_0_448
*655 FILLER_0_0_478
*656 FILLER_0_0_512
*657 FILLER_0_0_546
*658 FILLER_0_0_580
*659 FILLER_0_0_614
*660 FILLER_0_0_648
*661 FILLER_0_0_682
*662 FILLER_0_0_686
*663 FILLER_0_0_70
*664 FILLER_0_10_101
*665 FILLER_0_10_107
*666 FILLER_0_10_171
*667 FILLER_0_10_177
*668 FILLER_0_10_2
*669 FILLER_0_10_241
*670 FILLER_0_10_247
*671 FILLER_0_10_311
*672 FILLER_0_10_317
*673 FILLER_0_10_34
*674 FILLER_0_10_37
*675 FILLER_0_10_381
*676 FILLER_0_10_387
*677 FILLER_0_10_451
*678 FILLER_0_10_457
*679 FILLER_0_10_521
*680 FILLER_0_10_527
*681 FILLER_0_10_591
*682 FILLER_0_10_597
*683 FILLER_0_10_661
*684 FILLER_0_10_667
*685 FILLER_0_10_683
*686 FILLER_0_10_687
*687 FILLER_0_11_136
*688 FILLER_0_11_142
*689 FILLER_0_11_206
*690 FILLER_0_11_212
*691 FILLER_0_11_276
*692 FILLER_0_11_282
*693 FILLER_0_11_346
*694 FILLER_0_11_352
*695 FILLER_0_11_416
*696 FILLER_0_11_422
*697 FILLER_0_11_486
*698 FILLER_0_11_492
*699 FILLER_0_11_556
*700 FILLER_0_11_562
*701 FILLER_0_11_6
*702 FILLER_0_11_626
*703 FILLER_0_11_632
*704 FILLER_0_11_664
*705 FILLER_0_11_680
*706 FILLER_0_11_72
*707 FILLER_0_12_101
*708 FILLER_0_12_107
*709 FILLER_0_12_171
*710 FILLER_0_12_177
*711 FILLER_0_12_241
*712 FILLER_0_12_247
*713 FILLER_0_12_28
*714 FILLER_0_12_311
*715 FILLER_0_12_317
*716 FILLER_0_12_32
*717 FILLER_0_12_34
*718 FILLER_0_12_37
*719 FILLER_0_12_381
*720 FILLER_0_12_387
*721 FILLER_0_12_451
*722 FILLER_0_12_457
*723 FILLER_0_12_521
*724 FILLER_0_12_527
*725 FILLER_0_12_591
*726 FILLER_0_12_597
*727 FILLER_0_12_661
*728 FILLER_0_12_667
*729 FILLER_0_12_683
*730 FILLER_0_12_687
*731 FILLER_0_13_136
*732 FILLER_0_13_142
*733 FILLER_0_13_206
*734 FILLER_0_13_212
*735 FILLER_0_13_276
*736 FILLER_0_13_282
*737 FILLER_0_13_346
*738 FILLER_0_13_352
*739 FILLER_0_13_416
*740 FILLER_0_13_422
*741 FILLER_0_13_486
*742 FILLER_0_13_492
*743 FILLER_0_13_556
*744 FILLER_0_13_562
*745 FILLER_0_13_6
*746 FILLER_0_13_626
*747 FILLER_0_13_632
*748 FILLER_0_13_664
*749 FILLER_0_13_680
*750 FILLER_0_13_72
*751 FILLER_0_14_101
*752 FILLER_0_14_107
*753 FILLER_0_14_12
*754 FILLER_0_14_171
*755 FILLER_0_14_177
*756 FILLER_0_14_241
*757 FILLER_0_14_247
*758 FILLER_0_14_28
*759 FILLER_0_14_311
*760 FILLER_0_14_317
*761 FILLER_0_14_32
*762 FILLER_0_14_34
*763 FILLER_0_14_37
*764 FILLER_0_14_381
*765 FILLER_0_14_387
*766 FILLER_0_14_451
*767 FILLER_0_14_457
*768 FILLER_0_14_521
*769 FILLER_0_14_527
*770 FILLER_0_14_591
*771 FILLER_0_14_597
*772 FILLER_0_14_661
*773 FILLER_0_14_667
*774 FILLER_0_14_683
*775 FILLER_0_14_687
*776 FILLER_0_14_8
*777 FILLER_0_15_136
*778 FILLER_0_15_142
*779 FILLER_0_15_206
*780 FILLER_0_15_212
*781 FILLER_0_15_276
*782 FILLER_0_15_282
*783 FILLER_0_15_346
*784 FILLER_0_15_352
*785 FILLER_0_15_416
*786 FILLER_0_15_422
*787 FILLER_0_15_486
*788 FILLER_0_15_492
*789 FILLER_0_15_556
*790 FILLER_0_15_562
*791 FILLER_0_15_6
*792 FILLER_0_15_626
*793 FILLER_0_15_632
*794 FILLER_0_15_664
*795 FILLER_0_15_680
*796 FILLER_0_15_72
*797 FILLER_0_16_101
*798 FILLER_0_16_107
*799 FILLER_0_16_171
*800 FILLER_0_16_177
*801 FILLER_0_16_22
*802 FILLER_0_16_241
*803 FILLER_0_16_247
*804 FILLER_0_16_30
*805 FILLER_0_16_311
*806 FILLER_0_16_317
*807 FILLER_0_16_34
*808 FILLER_0_16_37
*809 FILLER_0_16_381
*810 FILLER_0_16_387
*811 FILLER_0_16_451
*812 FILLER_0_16_457
*813 FILLER_0_16_521
*814 FILLER_0_16_527
*815 FILLER_0_16_591
*816 FILLER_0_16_597
*817 FILLER_0_16_6
*818 FILLER_0_16_661
*819 FILLER_0_16_667
*820 FILLER_0_16_683
*821 FILLER_0_16_687
*822 FILLER_0_17_136
*823 FILLER_0_17_142
*824 FILLER_0_17_206
*825 FILLER_0_17_212
*826 FILLER_0_17_276
*827 FILLER_0_17_28
*828 FILLER_0_17_282
*829 FILLER_0_17_32
*830 FILLER_0_17_346
*831 FILLER_0_17_352
*832 FILLER_0_17_416
*833 FILLER_0_17_422
*834 FILLER_0_17_486
*835 FILLER_0_17_492
*836 FILLER_0_17_556
*837 FILLER_0_17_562
*838 FILLER_0_17_626
*839 FILLER_0_17_632
*840 FILLER_0_17_64
*841 FILLER_0_17_664
*842 FILLER_0_17_68
*843 FILLER_0_17_680
*844 FILLER_0_17_72
*845 FILLER_0_18_101
*846 FILLER_0_18_107
*847 FILLER_0_18_171
*848 FILLER_0_18_177
*849 FILLER_0_18_241
*850 FILLER_0_18_247
*851 FILLER_0_18_28
*852 FILLER_0_18_311
*853 FILLER_0_18_317
*854 FILLER_0_18_32
*855 FILLER_0_18_34
*856 FILLER_0_18_37
*857 FILLER_0_18_381
*858 FILLER_0_18_387
*859 FILLER_0_18_451
*860 FILLER_0_18_457
*861 FILLER_0_18_521
*862 FILLER_0_18_527
*863 FILLER_0_18_591
*864 FILLER_0_18_597
*865 FILLER_0_18_661
*866 FILLER_0_18_667
*867 FILLER_0_18_683
*868 FILLER_0_18_687
*869 FILLER_0_19_10
*870 FILLER_0_19_136
*871 FILLER_0_19_142
*872 FILLER_0_19_206
*873 FILLER_0_19_212
*874 FILLER_0_19_276
*875 FILLER_0_19_282
*876 FILLER_0_19_346
*877 FILLER_0_19_352
*878 FILLER_0_19_416
*879 FILLER_0_19_42
*880 FILLER_0_19_422
*881 FILLER_0_19_486
*882 FILLER_0_19_492
*883 FILLER_0_19_556
*884 FILLER_0_19_562
*885 FILLER_0_19_58
*886 FILLER_0_19_626
*887 FILLER_0_19_632
*888 FILLER_0_19_66
*889 FILLER_0_19_664
*890 FILLER_0_19_680
*891 FILLER_0_19_72
*892 FILLER_0_1_136
*893 FILLER_0_1_142
*894 FILLER_0_1_2
*895 FILLER_0_1_206
*896 FILLER_0_1_212
*897 FILLER_0_1_228
*898 FILLER_0_1_255
*899 FILLER_0_1_259
*900 FILLER_0_1_275
*901 FILLER_0_1_279
*902 FILLER_0_1_282
*903 FILLER_0_1_290
*904 FILLER_0_1_294
*905 FILLER_0_1_321
*906 FILLER_0_1_325
*907 FILLER_0_1_341
*908 FILLER_0_1_349
*909 FILLER_0_1_352
*910 FILLER_0_1_356
*911 FILLER_0_1_372
*912 FILLER_0_1_376
*913 FILLER_0_1_413
*914 FILLER_0_1_417
*915 FILLER_0_1_419
*916 FILLER_0_1_432
*917 FILLER_0_1_437
*918 FILLER_0_1_449
*919 FILLER_0_1_453
*920 FILLER_0_1_485
*921 FILLER_0_1_489
*922 FILLER_0_1_492
*923 FILLER_0_1_556
*924 FILLER_0_1_562
*925 FILLER_0_1_626
*926 FILLER_0_1_632
*927 FILLER_0_1_66
*928 FILLER_0_1_664
*929 FILLER_0_1_680
*930 FILLER_0_1_72
*931 FILLER_0_20_101
*932 FILLER_0_20_107
*933 FILLER_0_20_171
*934 FILLER_0_20_177
*935 FILLER_0_20_22
*936 FILLER_0_20_241
*937 FILLER_0_20_247
*938 FILLER_0_20_30
*939 FILLER_0_20_311
*940 FILLER_0_20_317
*941 FILLER_0_20_34
*942 FILLER_0_20_37
*943 FILLER_0_20_381
*944 FILLER_0_20_387
*945 FILLER_0_20_451
*946 FILLER_0_20_457
*947 FILLER_0_20_521
*948 FILLER_0_20_527
*949 FILLER_0_20_591
*950 FILLER_0_20_597
*951 FILLER_0_20_6
*952 FILLER_0_20_661
*953 FILLER_0_20_667
*954 FILLER_0_20_683
*955 FILLER_0_20_687
*956 FILLER_0_21_12
*957 FILLER_0_21_136
*958 FILLER_0_21_142
*959 FILLER_0_21_206
*960 FILLER_0_21_212
*961 FILLER_0_21_276
*962 FILLER_0_21_282
*963 FILLER_0_21_346
*964 FILLER_0_21_352
*965 FILLER_0_21_416
*966 FILLER_0_21_422
*967 FILLER_0_21_44
*968 FILLER_0_21_486
*969 FILLER_0_21_492
*970 FILLER_0_21_556
*971 FILLER_0_21_562
*972 FILLER_0_21_60
*973 FILLER_0_21_626
*974 FILLER_0_21_632
*975 FILLER_0_21_648
*976 FILLER_0_21_656
*977 FILLER_0_21_68
*978 FILLER_0_21_72
*979 FILLER_0_21_8
*980 FILLER_0_22_101
*981 FILLER_0_22_107
*982 FILLER_0_22_171
*983 FILLER_0_22_177
*984 FILLER_0_22_22
*985 FILLER_0_22_241
*986 FILLER_0_22_247
*987 FILLER_0_22_30
*988 FILLER_0_22_311
*989 FILLER_0_22_317
*990 FILLER_0_22_34
*991 FILLER_0_22_37
*992 FILLER_0_22_381
*993 FILLER_0_22_387
*994 FILLER_0_22_451
*995 FILLER_0_22_457
*996 FILLER_0_22_521
*997 FILLER_0_22_527
*998 FILLER_0_22_591
*999 FILLER_0_22_597
*1000 FILLER_0_22_6
*1001 FILLER_0_22_661
*1002 FILLER_0_22_667
*1003 FILLER_0_22_675
*1004 FILLER_0_22_679
*1005 FILLER_0_23_136
*1006 FILLER_0_23_142
*1007 FILLER_0_23_206
*1008 FILLER_0_23_212
*1009 FILLER_0_23_276
*1010 FILLER_0_23_282
*1011 FILLER_0_23_346
*1012 FILLER_0_23_352
*1013 FILLER_0_23_416
*1014 FILLER_0_23_422
*1015 FILLER_0_23_486
*1016 FILLER_0_23_492
*1017 FILLER_0_23_556
*1018 FILLER_0_23_562
*1019 FILLER_0_23_6
*1020 FILLER_0_23_626
*1021 FILLER_0_23_632
*1022 FILLER_0_23_648
*1023 FILLER_0_23_656
*1024 FILLER_0_23_72
*1025 FILLER_0_24_10
*1026 FILLER_0_24_101
*1027 FILLER_0_24_107
*1028 FILLER_0_24_171
*1029 FILLER_0_24_177
*1030 FILLER_0_24_241
*1031 FILLER_0_24_247
*1032 FILLER_0_24_26
*1033 FILLER_0_24_311
*1034 FILLER_0_24_317
*1035 FILLER_0_24_34
*1036 FILLER_0_24_37
*1037 FILLER_0_24_381
*1038 FILLER_0_24_387
*1039 FILLER_0_24_451
*1040 FILLER_0_24_457
*1041 FILLER_0_24_521
*1042 FILLER_0_24_527
*1043 FILLER_0_24_591
*1044 FILLER_0_24_597
*1045 FILLER_0_24_661
*1046 FILLER_0_24_667
*1047 FILLER_0_24_683
*1048 FILLER_0_25_136
*1049 FILLER_0_25_142
*1050 FILLER_0_25_206
*1051 FILLER_0_25_212
*1052 FILLER_0_25_276
*1053 FILLER_0_25_282
*1054 FILLER_0_25_346
*1055 FILLER_0_25_352
*1056 FILLER_0_25_416
*1057 FILLER_0_25_422
*1058 FILLER_0_25_486
*1059 FILLER_0_25_492
*1060 FILLER_0_25_556
*1061 FILLER_0_25_562
*1062 FILLER_0_25_6
*1063 FILLER_0_25_626
*1064 FILLER_0_25_632
*1065 FILLER_0_25_648
*1066 FILLER_0_25_656
*1067 FILLER_0_25_72
*1068 FILLER_0_26_101
*1069 FILLER_0_26_107
*1070 FILLER_0_26_171
*1071 FILLER_0_26_177
*1072 FILLER_0_26_22
*1073 FILLER_0_26_241
*1074 FILLER_0_26_247
*1075 FILLER_0_26_30
*1076 FILLER_0_26_311
*1077 FILLER_0_26_317
*1078 FILLER_0_26_34
*1079 FILLER_0_26_37
*1080 FILLER_0_26_381
*1081 FILLER_0_26_387
*1082 FILLER_0_26_451
*1083 FILLER_0_26_457
*1084 FILLER_0_26_521
*1085 FILLER_0_26_527
*1086 FILLER_0_26_591
*1087 FILLER_0_26_597
*1088 FILLER_0_26_6
*1089 FILLER_0_26_661
*1090 FILLER_0_26_667
*1091 FILLER_0_26_675
*1092 FILLER_0_26_679
*1093 FILLER_0_27_136
*1094 FILLER_0_27_142
*1095 FILLER_0_27_206
*1096 FILLER_0_27_212
*1097 FILLER_0_27_276
*1098 FILLER_0_27_282
*1099 FILLER_0_27_346
*1100 FILLER_0_27_352
*1101 FILLER_0_27_416
*1102 FILLER_0_27_422
*1103 FILLER_0_27_486
*1104 FILLER_0_27_492
*1105 FILLER_0_27_556
*1106 FILLER_0_27_562
*1107 FILLER_0_27_6
*1108 FILLER_0_27_626
*1109 FILLER_0_27_632
*1110 FILLER_0_27_648
*1111 FILLER_0_27_656
*1112 FILLER_0_27_72
*1113 FILLER_0_28_101
*1114 FILLER_0_28_107
*1115 FILLER_0_28_171
*1116 FILLER_0_28_177
*1117 FILLER_0_28_241
*1118 FILLER_0_28_247
*1119 FILLER_0_28_28
*1120 FILLER_0_28_311
*1121 FILLER_0_28_317
*1122 FILLER_0_28_32
*1123 FILLER_0_28_34
*1124 FILLER_0_28_37
*1125 FILLER_0_28_381
*1126 FILLER_0_28_387
*1127 FILLER_0_28_451
*1128 FILLER_0_28_457
*1129 FILLER_0_28_521
*1130 FILLER_0_28_527
*1131 FILLER_0_28_591
*1132 FILLER_0_28_597
*1133 FILLER_0_28_661
*1134 FILLER_0_28_667
*1135 FILLER_0_28_683
*1136 FILLER_0_28_687
*1137 FILLER_0_29_136
*1138 FILLER_0_29_142
*1139 FILLER_0_29_206
*1140 FILLER_0_29_212
*1141 FILLER_0_29_276
*1142 FILLER_0_29_282
*1143 FILLER_0_29_346
*1144 FILLER_0_29_352
*1145 FILLER_0_29_416
*1146 FILLER_0_29_422
*1147 FILLER_0_29_486
*1148 FILLER_0_29_492
*1149 FILLER_0_29_556
*1150 FILLER_0_29_562
*1151 FILLER_0_29_6
*1152 FILLER_0_29_626
*1153 FILLER_0_29_632
*1154 FILLER_0_29_648
*1155 FILLER_0_29_656
*1156 FILLER_0_29_72
*1157 FILLER_0_2_101
*1158 FILLER_0_2_107
*1159 FILLER_0_2_171
*1160 FILLER_0_2_177
*1161 FILLER_0_2_2
*1162 FILLER_0_2_209
*1163 FILLER_0_2_225
*1164 FILLER_0_2_233
*1165 FILLER_0_2_237
*1166 FILLER_0_2_240
*1167 FILLER_0_2_244
*1168 FILLER_0_2_247
*1169 FILLER_0_2_311
*1170 FILLER_0_2_317
*1171 FILLER_0_2_34
*1172 FILLER_0_2_37
*1173 FILLER_0_2_381
*1174 FILLER_0_2_387
*1175 FILLER_0_2_395
*1176 FILLER_0_2_399
*1177 FILLER_0_2_402
*1178 FILLER_0_2_410
*1179 FILLER_0_2_416
*1180 FILLER_0_2_422
*1181 FILLER_0_2_454
*1182 FILLER_0_2_457
*1183 FILLER_0_2_521
*1184 FILLER_0_2_527
*1185 FILLER_0_2_591
*1186 FILLER_0_2_597
*1187 FILLER_0_2_661
*1188 FILLER_0_2_667
*1189 FILLER_0_2_683
*1190 FILLER_0_2_687
*1191 FILLER_0_30_101
*1192 FILLER_0_30_107
*1193 FILLER_0_30_12
*1194 FILLER_0_30_16
*1195 FILLER_0_30_171
*1196 FILLER_0_30_177
*1197 FILLER_0_30_241
*1198 FILLER_0_30_247
*1199 FILLER_0_30_311
*1200 FILLER_0_30_317
*1201 FILLER_0_30_32
*1202 FILLER_0_30_34
*1203 FILLER_0_30_37
*1204 FILLER_0_30_381
*1205 FILLER_0_30_387
*1206 FILLER_0_30_451
*1207 FILLER_0_30_457
*1208 FILLER_0_30_521
*1209 FILLER_0_30_527
*1210 FILLER_0_30_591
*1211 FILLER_0_30_597
*1212 FILLER_0_30_661
*1213 FILLER_0_30_667
*1214 FILLER_0_30_675
*1215 FILLER_0_31_136
*1216 FILLER_0_31_142
*1217 FILLER_0_31_206
*1218 FILLER_0_31_212
*1219 FILLER_0_31_276
*1220 FILLER_0_31_282
*1221 FILLER_0_31_346
*1222 FILLER_0_31_352
*1223 FILLER_0_31_416
*1224 FILLER_0_31_422
*1225 FILLER_0_31_486
*1226 FILLER_0_31_492
*1227 FILLER_0_31_556
*1228 FILLER_0_31_562
*1229 FILLER_0_31_6
*1230 FILLER_0_31_626
*1231 FILLER_0_31_632
*1232 FILLER_0_31_664
*1233 FILLER_0_31_680
*1234 FILLER_0_31_72
*1235 FILLER_0_32_101
*1236 FILLER_0_32_107
*1237 FILLER_0_32_171
*1238 FILLER_0_32_177
*1239 FILLER_0_32_22
*1240 FILLER_0_32_241
*1241 FILLER_0_32_247
*1242 FILLER_0_32_30
*1243 FILLER_0_32_311
*1244 FILLER_0_32_317
*1245 FILLER_0_32_34
*1246 FILLER_0_32_37
*1247 FILLER_0_32_381
*1248 FILLER_0_32_387
*1249 FILLER_0_32_451
*1250 FILLER_0_32_457
*1251 FILLER_0_32_521
*1252 FILLER_0_32_527
*1253 FILLER_0_32_591
*1254 FILLER_0_32_597
*1255 FILLER_0_32_6
*1256 FILLER_0_32_661
*1257 FILLER_0_32_667
*1258 FILLER_0_32_683
*1259 FILLER_0_33_136
*1260 FILLER_0_33_142
*1261 FILLER_0_33_206
*1262 FILLER_0_33_212
*1263 FILLER_0_33_276
*1264 FILLER_0_33_282
*1265 FILLER_0_33_346
*1266 FILLER_0_33_352
*1267 FILLER_0_33_416
*1268 FILLER_0_33_422
*1269 FILLER_0_33_486
*1270 FILLER_0_33_492
*1271 FILLER_0_33_556
*1272 FILLER_0_33_562
*1273 FILLER_0_33_6
*1274 FILLER_0_33_626
*1275 FILLER_0_33_632
*1276 FILLER_0_33_664
*1277 FILLER_0_33_680
*1278 FILLER_0_33_72
*1279 FILLER_0_34_101
*1280 FILLER_0_34_107
*1281 FILLER_0_34_12
*1282 FILLER_0_34_171
*1283 FILLER_0_34_177
*1284 FILLER_0_34_241
*1285 FILLER_0_34_247
*1286 FILLER_0_34_28
*1287 FILLER_0_34_311
*1288 FILLER_0_34_317
*1289 FILLER_0_34_32
*1290 FILLER_0_34_34
*1291 FILLER_0_34_37
*1292 FILLER_0_34_381
*1293 FILLER_0_34_387
*1294 FILLER_0_34_451
*1295 FILLER_0_34_457
*1296 FILLER_0_34_521
*1297 FILLER_0_34_527
*1298 FILLER_0_34_591
*1299 FILLER_0_34_597
*1300 FILLER_0_34_661
*1301 FILLER_0_34_667
*1302 FILLER_0_34_683
*1303 FILLER_0_34_8
*1304 FILLER_0_35_12
*1305 FILLER_0_35_136
*1306 FILLER_0_35_142
*1307 FILLER_0_35_206
*1308 FILLER_0_35_212
*1309 FILLER_0_35_276
*1310 FILLER_0_35_282
*1311 FILLER_0_35_346
*1312 FILLER_0_35_352
*1313 FILLER_0_35_416
*1314 FILLER_0_35_422
*1315 FILLER_0_35_44
*1316 FILLER_0_35_486
*1317 FILLER_0_35_492
*1318 FILLER_0_35_556
*1319 FILLER_0_35_562
*1320 FILLER_0_35_60
*1321 FILLER_0_35_626
*1322 FILLER_0_35_632
*1323 FILLER_0_35_648
*1324 FILLER_0_35_656
*1325 FILLER_0_35_68
*1326 FILLER_0_35_72
*1327 FILLER_0_35_8
*1328 FILLER_0_36_101
*1329 FILLER_0_36_107
*1330 FILLER_0_36_12
*1331 FILLER_0_36_16
*1332 FILLER_0_36_171
*1333 FILLER_0_36_177
*1334 FILLER_0_36_241
*1335 FILLER_0_36_247
*1336 FILLER_0_36_311
*1337 FILLER_0_36_317
*1338 FILLER_0_36_32
*1339 FILLER_0_36_34
*1340 FILLER_0_36_37
*1341 FILLER_0_36_381
*1342 FILLER_0_36_387
*1343 FILLER_0_36_451
*1344 FILLER_0_36_457
*1345 FILLER_0_36_521
*1346 FILLER_0_36_527
*1347 FILLER_0_36_591
*1348 FILLER_0_36_597
*1349 FILLER_0_36_661
*1350 FILLER_0_36_667
*1351 FILLER_0_36_675
*1352 FILLER_0_36_679
*1353 FILLER_0_37_136
*1354 FILLER_0_37_142
*1355 FILLER_0_37_206
*1356 FILLER_0_37_212
*1357 FILLER_0_37_276
*1358 FILLER_0_37_282
*1359 FILLER_0_37_346
*1360 FILLER_0_37_352
*1361 FILLER_0_37_368
*1362 FILLER_0_37_372
*1363 FILLER_0_37_374
*1364 FILLER_0_37_383
*1365 FILLER_0_37_387
*1366 FILLER_0_37_419
*1367 FILLER_0_37_422
*1368 FILLER_0_37_486
*1369 FILLER_0_37_492
*1370 FILLER_0_37_556
*1371 FILLER_0_37_562
*1372 FILLER_0_37_6
*1373 FILLER_0_37_626
*1374 FILLER_0_37_632
*1375 FILLER_0_37_664
*1376 FILLER_0_37_680
*1377 FILLER_0_37_72
*1378 FILLER_0_38_101
*1379 FILLER_0_38_107
*1380 FILLER_0_38_171
*1381 FILLER_0_38_177
*1382 FILLER_0_38_22
*1383 FILLER_0_38_241
*1384 FILLER_0_38_247
*1385 FILLER_0_38_30
*1386 FILLER_0_38_311
*1387 FILLER_0_38_317
*1388 FILLER_0_38_333
*1389 FILLER_0_38_34
*1390 FILLER_0_38_341
*1391 FILLER_0_38_345
*1392 FILLER_0_38_347
*1393 FILLER_0_38_356
*1394 FILLER_0_38_360
*1395 FILLER_0_38_37
*1396 FILLER_0_38_376
*1397 FILLER_0_38_384
*1398 FILLER_0_38_387
*1399 FILLER_0_38_451
*1400 FILLER_0_38_457
*1401 FILLER_0_38_521
*1402 FILLER_0_38_527
*1403 FILLER_0_38_591
*1404 FILLER_0_38_597
*1405 FILLER_0_38_6
*1406 FILLER_0_38_661
*1407 FILLER_0_38_667
*1408 FILLER_0_38_683
*1409 FILLER_0_39_136
*1410 FILLER_0_39_142
*1411 FILLER_0_39_206
*1412 FILLER_0_39_212
*1413 FILLER_0_39_276
*1414 FILLER_0_39_282
*1415 FILLER_0_39_290
*1416 FILLER_0_39_292
*1417 FILLER_0_39_303
*1418 FILLER_0_39_335
*1419 FILLER_0_39_343
*1420 FILLER_0_39_347
*1421 FILLER_0_39_349
*1422 FILLER_0_39_352
*1423 FILLER_0_39_384
*1424 FILLER_0_39_392
*1425 FILLER_0_39_396
*1426 FILLER_0_39_406
*1427 FILLER_0_39_410
*1428 FILLER_0_39_418
*1429 FILLER_0_39_422
*1430 FILLER_0_39_486
*1431 FILLER_0_39_492
*1432 FILLER_0_39_556
*1433 FILLER_0_39_562
*1434 FILLER_0_39_6
*1435 FILLER_0_39_626
*1436 FILLER_0_39_632
*1437 FILLER_0_39_664
*1438 FILLER_0_39_72
*1439 FILLER_0_3_136
*1440 FILLER_0_3_142
*1441 FILLER_0_3_2
*1442 FILLER_0_3_206
*1443 FILLER_0_3_212
*1444 FILLER_0_3_276
*1445 FILLER_0_3_282
*1446 FILLER_0_3_346
*1447 FILLER_0_3_352
*1448 FILLER_0_3_416
*1449 FILLER_0_3_422
*1450 FILLER_0_3_486
*1451 FILLER_0_3_492
*1452 FILLER_0_3_556
*1453 FILLER_0_3_562
*1454 FILLER_0_3_626
*1455 FILLER_0_3_632
*1456 FILLER_0_3_66
*1457 FILLER_0_3_664
*1458 FILLER_0_3_680
*1459 FILLER_0_3_72
*1460 FILLER_0_40_101
*1461 FILLER_0_40_107
*1462 FILLER_0_40_171
*1463 FILLER_0_40_177
*1464 FILLER_0_40_22
*1465 FILLER_0_40_241
*1466 FILLER_0_40_247
*1467 FILLER_0_40_30
*1468 FILLER_0_40_311
*1469 FILLER_0_40_317
*1470 FILLER_0_40_34
*1471 FILLER_0_40_37
*1472 FILLER_0_40_381
*1473 FILLER_0_40_395
*1474 FILLER_0_40_399
*1475 FILLER_0_40_431
*1476 FILLER_0_40_447
*1477 FILLER_0_40_457
*1478 FILLER_0_40_521
*1479 FILLER_0_40_527
*1480 FILLER_0_40_591
*1481 FILLER_0_40_597
*1482 FILLER_0_40_6
*1483 FILLER_0_40_661
*1484 FILLER_0_40_667
*1485 FILLER_0_40_683
*1486 FILLER_0_41_136
*1487 FILLER_0_41_142
*1488 FILLER_0_41_206
*1489 FILLER_0_41_212
*1490 FILLER_0_41_276
*1491 FILLER_0_41_28
*1492 FILLER_0_41_282
*1493 FILLER_0_41_286
*1494 FILLER_0_41_295
*1495 FILLER_0_41_32
*1496 FILLER_0_41_327
*1497 FILLER_0_41_335
*1498 FILLER_0_41_337
*1499 FILLER_0_41_348
*1500 FILLER_0_41_352
*1501 FILLER_0_41_368
*1502 FILLER_0_41_380
*1503 FILLER_0_41_384
*1504 FILLER_0_41_416
*1505 FILLER_0_41_422
*1506 FILLER_0_41_486
*1507 FILLER_0_41_492
*1508 FILLER_0_41_556
*1509 FILLER_0_41_562
*1510 FILLER_0_41_626
*1511 FILLER_0_41_632
*1512 FILLER_0_41_64
*1513 FILLER_0_41_664
*1514 FILLER_0_41_68
*1515 FILLER_0_41_680
*1516 FILLER_0_41_72
*1517 FILLER_0_42_101
*1518 FILLER_0_42_107
*1519 FILLER_0_42_171
*1520 FILLER_0_42_177
*1521 FILLER_0_42_241
*1522 FILLER_0_42_247
*1523 FILLER_0_42_279
*1524 FILLER_0_42_28
*1525 FILLER_0_42_287
*1526 FILLER_0_42_291
*1527 FILLER_0_42_302
*1528 FILLER_0_42_310
*1529 FILLER_0_42_314
*1530 FILLER_0_42_317
*1531 FILLER_0_42_32
*1532 FILLER_0_42_34
*1533 FILLER_0_42_37
*1534 FILLER_0_42_381
*1535 FILLER_0_42_387
*1536 FILLER_0_42_451
*1537 FILLER_0_42_457
*1538 FILLER_0_42_521
*1539 FILLER_0_42_527
*1540 FILLER_0_42_591
*1541 FILLER_0_42_597
*1542 FILLER_0_42_661
*1543 FILLER_0_42_667
*1544 FILLER_0_42_675
*1545 FILLER_0_42_679
*1546 FILLER_0_43_12
*1547 FILLER_0_43_136
*1548 FILLER_0_43_142
*1549 FILLER_0_43_16
*1550 FILLER_0_43_206
*1551 FILLER_0_43_212
*1552 FILLER_0_43_276
*1553 FILLER_0_43_282
*1554 FILLER_0_43_286
*1555 FILLER_0_43_297
*1556 FILLER_0_43_329
*1557 FILLER_0_43_345
*1558 FILLER_0_43_349
*1559 FILLER_0_43_352
*1560 FILLER_0_43_416
*1561 FILLER_0_43_422