*SPEF "ieee 1481-1999"
*DESIGN "output_mux"
*DATE "11:11:11 Fri 11 11, 1111"
*VENDOR "OpenRCX"
*PROGRAM "Parallel Extraction"
*VERSION "1.0"
*DESIGN_FLOW "NAME_SCOPE LOCAL" "PIN_CAP NONE"
*DIVIDER /
*DELIMITER :
*BUS_DELIMITER []
*T_UNIT 1 NS
*C_UNIT 1 PF
*R_UNIT 1 OHM
*L_UNIT 1 HENRY

*NAME_MAP
*1 out[0]
*2 out[10]
*3 out[11]
*4 out[1]
*5 out[2]
*6 out[3]
*7 out[4]
*8 out[5]
*9 out[6]
*10 out[7]
*11 out[8]
*12 out[9]
*13 proj_out[0]
*14 proj_out[10]
*15 proj_out[11]
*16 proj_out[12]
*17 proj_out[13]
*18 proj_out[14]
*19 proj_out[15]
*20 proj_out[16]
*21 proj_out[17]
*22 proj_out[18]
*23 proj_out[19]
*24 proj_out[1]
*25 proj_out[20]
*26 proj_out[21]
*27 proj_out[22]
*28 proj_out[23]
*29 proj_out[24]
*30 proj_out[25]
*31 proj_out[26]
*32 proj_out[27]
*33 proj_out[28]
*34 proj_out[29]
*35 proj_out[2]
*36 proj_out[30]
*37 proj_out[31]
*38 proj_out[32]
*39 proj_out[33]
*40 proj_out[34]
*41 proj_out[35]
*42 proj_out[36]
*43 proj_out[37]
*44 proj_out[38]
*45 proj_out[39]
*46 proj_out[3]
*47 proj_out[40]
*48 proj_out[41]
*49 proj_out[42]
*50 proj_out[43]
*51 proj_out[44]
*52 proj_out[45]
*53 proj_out[46]
*54 proj_out[47]
*55 proj_out[48]
*56 proj_out[49]
*57 proj_out[4]
*58 proj_out[50]
*59 proj_out[51]
*60 proj_out[52]
*61 proj_out[53]
*62 proj_out[54]
*63 proj_out[55]
*64 proj_out[56]
*65 proj_out[57]
*66 proj_out[58]
*67 proj_out[59]
*68 proj_out[5]
*69 proj_out[60]
*70 proj_out[61]
*71 proj_out[62]
*72 proj_out[63]
*73 proj_out[64]
*74 proj_out[65]
*75 proj_out[66]
*76 proj_out[67]
*77 proj_out[68]
*78 proj_out[69]
*79 proj_out[6]
*80 proj_out[70]
*81 proj_out[71]
*82 proj_out[72]
*83 proj_out[73]
*84 proj_out[74]
*85 proj_out[75]
*86 proj_out[76]
*87 proj_out[77]
*88 proj_out[78]
*89 proj_out[79]
*90 proj_out[7]
*91 proj_out[80]
*92 proj_out[81]
*93 proj_out[82]
*94 proj_out[83]
*95 proj_out[84]
*96 proj_out[85]
*97 proj_out[86]
*98 proj_out[87]
*99 proj_out[88]
*100 proj_out[89]
*101 proj_out[8]
*102 proj_out[90]
*103 proj_out[91]
*104 proj_out[92]
*105 proj_out[93]
*106 proj_out[94]
*107 proj_out[95]
*108 proj_out[9]
*109 sel[0]
*110 sel[1]
*111 sel[2]
*114 _000_
*115 _001_
*116 _002_
*117 _003_
*118 _004_
*119 _005_
*120 _006_
*121 _007_
*122 _008_
*123 _009_
*124 _010_
*125 _011_
*126 _012_
*127 _013_
*128 _014_
*129 _015_
*130 _016_
*131 _017_
*132 _018_
*133 _019_
*134 _020_
*135 _021_
*136 _022_
*137 _023_
*138 _024_
*139 _025_
*140 _026_
*141 _027_
*142 _028_
*143 _029_
*144 _030_
*145 _031_
*146 _032_
*147 _033_
*148 _034_
*149 _035_
*150 _036_
*151 _037_
*152 _038_
*153 _039_
*154 _040_
*155 _041_
*156 _042_
*157 _043_
*158 _044_
*159 _045_
*160 _046_
*161 _047_
*162 _048_
*163 _049_
*164 _050_
*165 _051_
*166 _052_
*167 _053_
*168 _054_
*169 _055_
*170 _056_
*171 _057_
*172 _058_
*173 _059_
*174 _060_
*175 _061_
*176 _062_
*177 _063_
*178 _064_
*179 _065_
*180 _066_
*181 _067_
*182 _068_
*183 _069_
*184 _070_
*185 _071_
*186 _072_
*187 _073_
*188 _074_
*189 _075_
*190 _076_
*191 _077_
*192 _078_
*193 _079_
*194 _080_
*195 _081_
*196 _082_
*197 _083_
*198 _084_
*199 _085_
*200 _086_
*201 _087_
*202 _088_
*203 _089_
*204 _090_
*205 _091_
*206 _092_
*207 _093_
*208 _094_
*209 _095_
*210 _096_
*211 _097_
*212 _098_
*213 _099_
*214 _100_
*215 _101_
*216 net1
*217 net10
*218 net100
*219 net101
*220 net102
*221 net103
*222 net104
*223 net105
*224 net106
*225 net107
*226 net108
*227 net109
*228 net11
*229 net110
*230 net111
*231 net12
*232 net13
*233 net14
*234 net15
*235 net16
*236 net17
*237 net18
*238 net19
*239 net2
*240 net20
*241 net21
*242 net22
*243 net23
*244 net24
*245 net25
*246 net26
*247 net27
*248 net28
*249 net29
*250 net3
*251 net30
*252 net31
*253 net32
*254 net33
*255 net34
*256 net35
*257 net36
*258 net37
*259 net38
*260 net39
*261 net4
*262 net40
*263 net41
*264 net42
*265 net43
*266 net44
*267 net45
*268 net46
*269 net47
*270 net48
*271 net49
*272 net5
*273 net50
*274 net51
*275 net52
*276 net53
*277 net54
*278 net55
*279 net56
*280 net57
*281 net58
*282 net59
*283 net6
*284 net60
*285 net61
*286 net62
*287 net63
*288 net64
*289 net65
*290 net66
*291 net67
*292 net68
*293 net69
*294 net7
*295 net70
*296 net71
*297 net72
*298 net73
*299 net74
*300 net75
*301 net76
*302 net77
*303 net78
*304 net79
*305 net8
*306 net80
*307 net81
*308 net82
*309 net83
*310 net84
*311 net85
*312 net86
*313 net87
*314 net88
*315 net89
*316 net9
*317 net90
*318 net91
*319 net92
*320 net93
*321 net94
*322 net95
*323 net96
*324 net97
*325 net98
*326 net99
*327 ANTENNA__102__I
*328 ANTENNA__112__I
*329 ANTENNA__114__A1
*330 ANTENNA__140__A2
*331 ANTENNA__150__A2
*332 ANTENNA__154__I
*333 ANTENNA__157__S1
*334 ANTENNA__162__I2
*335 ANTENNA__162__S0
*336 ANTENNA__173__I
*337 ANTENNA__179__I3
*338 ANTENNA__196__A2
*339 ANTENNA__196__B1
*340 ANTENNA__206__I2
*341 ANTENNA_input10_I
*342 ANTENNA_input11_I
*343 ANTENNA_input12_I
*344 ANTENNA_input13_I
*345 ANTENNA_input14_I
*346 ANTENNA_input15_I
*347 ANTENNA_input16_I
*348 ANTENNA_input17_I
*349 ANTENNA_input18_I
*350 ANTENNA_input19_I
*351 ANTENNA_input1_I
*352 ANTENNA_input20_I
*353 ANTENNA_input21_I
*354 ANTENNA_input22_I
*355 ANTENNA_input23_I
*356 ANTENNA_input24_I
*357 ANTENNA_input25_I
*358 ANTENNA_input26_I
*359 ANTENNA_input27_I
*360 ANTENNA_input28_I
*361 ANTENNA_input29_I
*362 ANTENNA_input2_I
*363 ANTENNA_input30_I
*364 ANTENNA_input31_I
*365 ANTENNA_input32_I
*366 ANTENNA_input33_I
*367 ANTENNA_input34_I
*368 ANTENNA_input35_I
*369 ANTENNA_input36_I
*370 ANTENNA_input37_I
*371 ANTENNA_input38_I
*372 ANTENNA_input39_I
*373 ANTENNA_input3_I
*374 ANTENNA_input40_I
*375 ANTENNA_input41_I
*376 ANTENNA_input42_I
*377 ANTENNA_input43_I
*378 ANTENNA_input44_I
*379 ANTENNA_input45_I
*380 ANTENNA_input46_I
*381 ANTENNA_input47_I
*382 ANTENNA_input48_I
*383 ANTENNA_input49_I
*384 ANTENNA_input4_I
*385 ANTENNA_input50_I
*386 ANTENNA_input51_I
*387 ANTENNA_input52_I
*388 ANTENNA_input53_I
*389 ANTENNA_input54_I
*390 ANTENNA_input55_I
*391 ANTENNA_input56_I
*392 ANTENNA_input57_I
*393 ANTENNA_input58_I
*394 ANTENNA_input59_I
*395 ANTENNA_input5_I
*396 ANTENNA_input60_I
*397 ANTENNA_input61_I
*398 ANTENNA_input62_I
*399 ANTENNA_input63_I
*400 ANTENNA_input64_I
*401 ANTENNA_input65_I
*402 ANTENNA_input66_I
*403 ANTENNA_input67_I
*404 ANTENNA_input68_I
*405 ANTENNA_input69_I
*406 ANTENNA_input6_I
*407 ANTENNA_input70_I
*408 ANTENNA_input71_I
*409 ANTENNA_input72_I
*410 ANTENNA_input73_I
*411 ANTENNA_input74_I
*412 ANTENNA_input75_I
*413 ANTENNA_input76_I
*414 ANTENNA_input77_I
*415 ANTENNA_input78_I
*416 ANTENNA_input79_I
*417 ANTENNA_input7_I
*418 ANTENNA_input80_I
*419 ANTENNA_input81_I
*420 ANTENNA_input82_I
*421 ANTENNA_input83_I
*422 ANTENNA_input84_I
*423 ANTENNA_input85_I
*424 ANTENNA_input86_I
*425 ANTENNA_input87_I
*426 ANTENNA_input88_I
*427 ANTENNA_input89_I
*428 ANTENNA_input8_I
*429 ANTENNA_input90_I
*430 ANTENNA_input91_I
*431 ANTENNA_input92_I
*432 ANTENNA_input93_I
*433 ANTENNA_input94_I
*434 ANTENNA_input95_I
*435 ANTENNA_input96_I
*436 ANTENNA_input97_I
*437 ANTENNA_input98_I
*438 ANTENNA_input99_I
*439 ANTENNA_input9_I
*440 FILLER_0_0_138
*441 FILLER_0_0_163
*442 FILLER_0_0_2
*443 FILLER_0_0_236
*444 FILLER_0_0_270
*445 FILLER_0_0_274
*446 FILLER_0_0_308
*447 FILLER_0_0_324
*448 FILLER_0_0_328
*449 FILLER_0_0_330
*450 FILLER_0_0_36
*451 FILLER_0_0_70
*452 FILLER_0_0_86
*453 FILLER_0_10_101
*454 FILLER_0_10_107
*455 FILLER_0_10_171
*456 FILLER_0_10_177
*457 FILLER_0_10_2
*458 FILLER_0_10_241
*459 FILLER_0_10_247
*460 FILLER_0_10_311
*461 FILLER_0_10_317
*462 FILLER_0_10_321
*463 FILLER_0_10_34
*464 FILLER_0_10_37
*465 FILLER_0_11_136
*466 FILLER_0_11_142
*467 FILLER_0_11_150
*468 FILLER_0_11_154
*469 FILLER_0_11_180
*470 FILLER_0_11_196
*471 FILLER_0_11_204
*472 FILLER_0_11_208
*473 FILLER_0_11_212
*474 FILLER_0_11_276
*475 FILLER_0_11_28
*476 FILLER_0_11_282
*477 FILLER_0_11_314
*478 FILLER_0_11_318
*479 FILLER_0_11_321
*480 FILLER_0_11_60
*481 FILLER_0_11_68
*482 FILLER_0_11_72
*483 FILLER_0_12_101
*484 FILLER_0_12_107
*485 FILLER_0_12_139
*486 FILLER_0_12_170
*487 FILLER_0_12_174
*488 FILLER_0_12_187
*489 FILLER_0_12_189
*490 FILLER_0_12_222
*491 FILLER_0_12_238
*492 FILLER_0_12_242
*493 FILLER_0_12_244
*494 FILLER_0_12_247
*495 FILLER_0_12_28
*496 FILLER_0_12_311
*497 FILLER_0_12_317
*498 FILLER_0_12_32
*499 FILLER_0_12_34
*500 FILLER_0_12_37
*501 FILLER_0_13_136
*502 FILLER_0_13_14
*503 FILLER_0_13_142
*504 FILLER_0_13_144
*505 FILLER_0_13_170
*506 FILLER_0_13_18
*507 FILLER_0_13_212
*508 FILLER_0_13_216
*509 FILLER_0_13_22
*510 FILLER_0_13_282
*511 FILLER_0_13_314
*512 FILLER_0_13_322
*513 FILLER_0_13_54
*514 FILLER_0_13_72
*515 FILLER_0_14_101
*516 FILLER_0_14_107
*517 FILLER_0_14_12
*518 FILLER_0_14_139
*519 FILLER_0_14_155
*520 FILLER_0_14_159
*521 FILLER_0_14_174
*522 FILLER_0_14_222
*523 FILLER_0_14_238
*524 FILLER_0_14_242
*525 FILLER_0_14_244
*526 FILLER_0_14_247
*527 FILLER_0_14_28
*528 FILLER_0_14_311
*529 FILLER_0_14_317
*530 FILLER_0_14_32
*531 FILLER_0_14_321
*532 FILLER_0_14_34
*533 FILLER_0_14_37
*534 FILLER_0_14_8
*535 FILLER_0_15_104
*536 FILLER_0_15_108
*537 FILLER_0_15_110
*538 FILLER_0_15_12
*539 FILLER_0_15_136
*540 FILLER_0_15_142
*541 FILLER_0_15_150
*542 FILLER_0_15_184
*543 FILLER_0_15_200
*544 FILLER_0_15_208
*545 FILLER_0_15_212
*546 FILLER_0_15_276
*547 FILLER_0_15_282
*548 FILLER_0_15_314
*549 FILLER_0_15_322
*550 FILLER_0_15_44
*551 FILLER_0_15_60
*552 FILLER_0_15_68
*553 FILLER_0_15_72
*554 FILLER_0_15_8
*555 FILLER_0_16_101
*556 FILLER_0_16_107
*557 FILLER_0_16_12
*558 FILLER_0_16_134
*559 FILLER_0_16_16
*560 FILLER_0_16_165
*561 FILLER_0_16_173
*562 FILLER_0_16_177
*563 FILLER_0_16_241
*564 FILLER_0_16_247
*565 FILLER_0_16_311
*566 FILLER_0_16_317
*567 FILLER_0_16_32
*568 FILLER_0_16_321
*569 FILLER_0_16_34
*570 FILLER_0_16_37
*571 FILLER_0_16_8
*572 FILLER_0_17_14
*573 FILLER_0_17_142
*574 FILLER_0_17_146
*575 FILLER_0_17_173
*576 FILLER_0_17_177
*577 FILLER_0_17_18
*578 FILLER_0_17_212
*579 FILLER_0_17_216
*580 FILLER_0_17_250
*581 FILLER_0_17_266
*582 FILLER_0_17_274
*583 FILLER_0_17_278
*584 FILLER_0_17_282
*585 FILLER_0_17_314
*586 FILLER_0_17_318
*587 FILLER_0_17_321
*588 FILLER_0_17_50
*589 FILLER_0_17_66
*590 FILLER_0_17_72
*591 FILLER_0_17_88
*592 FILLER_0_17_96
*593 FILLER_0_18_107
*594 FILLER_0_18_173
*595 FILLER_0_18_183
*596 FILLER_0_18_185
*597 FILLER_0_18_206
*598 FILLER_0_18_210
*599 FILLER_0_18_212
*600 FILLER_0_18_247
*601 FILLER_0_18_251
*602 FILLER_0_18_28
*603 FILLER_0_18_283
*604 FILLER_0_18_299
*605 FILLER_0_18_307
*606 FILLER_0_18_311
*607 FILLER_0_18_317
*608 FILLER_0_18_32
*609 FILLER_0_18_34
*610 FILLER_0_18_37
*611 FILLER_0_18_69
*612 FILLER_0_18_85
*613 FILLER_0_18_89
*614 FILLER_0_19_104
*615 FILLER_0_19_106
*616 FILLER_0_19_12
*617 FILLER_0_19_150
*618 FILLER_0_19_167
*619 FILLER_0_19_171
*620 FILLER_0_19_183
*621 FILLER_0_19_195
*622 FILLER_0_19_203
*623 FILLER_0_19_207
*624 FILLER_0_19_209
*625 FILLER_0_19_220
*626 FILLER_0_19_252
*627 FILLER_0_19_268
*628 FILLER_0_19_276
*629 FILLER_0_19_282
*630 FILLER_0_19_314
*631 FILLER_0_19_322
*632 FILLER_0_19_44
*633 FILLER_0_19_60
*634 FILLER_0_19_68
*635 FILLER_0_19_72
*636 FILLER_0_19_8
*637 FILLER_0_1_123
*638 FILLER_0_1_133
*639 FILLER_0_1_139
*640 FILLER_0_1_142
*641 FILLER_0_1_146
*642 FILLER_0_1_148
*643 FILLER_0_1_151
*644 FILLER_0_1_157
*645 FILLER_0_1_167
*646 FILLER_0_1_171
*647 FILLER_0_1_193
*648 FILLER_0_1_195
*649 FILLER_0_1_198
*650 FILLER_0_1_2
*651 FILLER_0_1_202
*652 FILLER_0_1_206
*653 FILLER_0_1_212
*654 FILLER_0_1_216
*655 FILLER_0_1_220
*656 FILLER_0_1_224
*657 FILLER_0_1_226
*658 FILLER_0_1_235
*659 FILLER_0_1_239
*660 FILLER_0_1_243
*661 FILLER_0_1_247
*662 FILLER_0_1_249
*663 FILLER_0_1_252
*664 FILLER_0_1_258
*665 FILLER_0_1_264
*666 FILLER_0_1_282
*667 FILLER_0_1_314
*668 FILLER_0_1_330
*669 FILLER_0_1_66
*670 FILLER_0_1_72
*671 FILLER_0_1_88
*672 FILLER_0_1_96
*673 FILLER_0_20_171
*674 FILLER_0_20_177
*675 FILLER_0_20_186
*676 FILLER_0_20_202
*677 FILLER_0_20_210
*678 FILLER_0_20_212
*679 FILLER_0_20_247
*680 FILLER_0_20_28
*681 FILLER_0_20_311
*682 FILLER_0_20_317
*683 FILLER_0_20_32
*684 FILLER_0_20_321
*685 FILLER_0_20_34
*686 FILLER_0_20_37
*687 FILLER_0_20_69
*688 FILLER_0_20_85
*689 FILLER_0_20_93
*690 FILLER_0_21_12
*691 FILLER_0_21_175
*692 FILLER_0_21_201
*693 FILLER_0_21_203
*694 FILLER_0_21_220
*695 FILLER_0_21_258
*696 FILLER_0_21_274
*697 FILLER_0_21_278
*698 FILLER_0_21_282
*699 FILLER_0_21_314
*700 FILLER_0_21_322
*701 FILLER_0_21_44
*702 FILLER_0_21_60
*703 FILLER_0_21_68
*704 FILLER_0_21_72
*705 FILLER_0_21_8
*706 FILLER_0_21_88
*707 FILLER_0_21_96
*708 FILLER_0_22_12
*709 FILLER_0_22_200
*710 FILLER_0_22_233
*711 FILLER_0_22_237
*712 FILLER_0_22_241
*713 FILLER_0_22_247
*714 FILLER_0_22_28
*715 FILLER_0_22_311
*716 FILLER_0_22_317
*717 FILLER_0_22_32
*718 FILLER_0_22_321
*719 FILLER_0_22_34
*720 FILLER_0_22_37
*721 FILLER_0_22_69
*722 FILLER_0_22_8
*723 FILLER_0_22_85
*724 FILLER_0_22_91
*725 FILLER_0_23_12
*726 FILLER_0_23_16
*727 FILLER_0_23_197
*728 FILLER_0_23_208
*729 FILLER_0_23_220
*730 FILLER_0_23_252
*731 FILLER_0_23_268
*732 FILLER_0_23_276
*733 FILLER_0_23_282
*734 FILLER_0_23_314
*735 FILLER_0_23_318
*736 FILLER_0_23_321
*737 FILLER_0_23_48
*738 FILLER_0_23_64
*739 FILLER_0_23_68
*740 FILLER_0_23_72
*741 FILLER_0_23_8
*742 FILLER_0_23_88
*743 FILLER_0_23_92
*744 FILLER_0_23_94
*745 FILLER_0_24_101
*746 FILLER_0_24_107
*747 FILLER_0_24_14
*748 FILLER_0_24_170
*749 FILLER_0_24_174
*750 FILLER_0_24_18
*751 FILLER_0_24_187
*752 FILLER_0_24_195
*753 FILLER_0_24_199
*754 FILLER_0_24_203
*755 FILLER_0_24_206
*756 FILLER_0_24_238
*757 FILLER_0_24_242
*758 FILLER_0_24_244
*759 FILLER_0_24_247
*760 FILLER_0_24_311
*761 FILLER_0_24_317
*762 FILLER_0_24_34
*763 FILLER_0_24_37
*764 FILLER_0_25_100
*765 FILLER_0_25_102
*766 FILLER_0_25_12
*767 FILLER_0_25_125
*768 FILLER_0_25_150
*769 FILLER_0_25_181
*770 FILLER_0_25_189
*771 FILLER_0_25_193
*772 FILLER_0_25_200
*773 FILLER_0_25_208
*774 FILLER_0_25_212
*775 FILLER_0_25_246
*776 FILLER_0_25_278
*777 FILLER_0_25_282
*778 FILLER_0_25_314
*779 FILLER_0_25_322
*780 FILLER_0_25_44
*781 FILLER_0_25_60
*782 FILLER_0_25_68
*783 FILLER_0_25_72
*784 FILLER_0_25_8
*785 FILLER_0_25_88
*786 FILLER_0_25_96
*787 FILLER_0_26_107
*788 FILLER_0_26_113
*789 FILLER_0_26_12
*790 FILLER_0_26_129
*791 FILLER_0_26_131
*792 FILLER_0_26_140
*793 FILLER_0_26_214
*794 FILLER_0_26_230
*795 FILLER_0_26_238
*796 FILLER_0_26_242
*797 FILLER_0_26_244
*798 FILLER_0_26_247
*799 FILLER_0_26_28
*800 FILLER_0_26_311
*801 FILLER_0_26_317
*802 FILLER_0_26_32
*803 FILLER_0_26_321
*804 FILLER_0_26_34
*805 FILLER_0_26_37
*806 FILLER_0_26_69
*807 FILLER_0_26_8
*808 FILLER_0_26_85
*809 FILLER_0_26_93
*810 FILLER_0_27_12
*811 FILLER_0_27_142
*812 FILLER_0_27_146
*813 FILLER_0_27_195
*814 FILLER_0_27_203
*815 FILLER_0_27_207
*816 FILLER_0_27_209
*817 FILLER_0_27_212
*818 FILLER_0_27_214
*819 FILLER_0_27_247
*820 FILLER_0_27_279
*821 FILLER_0_27_282
*822 FILLER_0_27_314
*823 FILLER_0_27_322
*824 FILLER_0_27_44
*825 FILLER_0_27_60
*826 FILLER_0_27_68
*827 FILLER_0_27_72
*828 FILLER_0_27_8
*829 FILLER_0_27_88
*830 FILLER_0_27_96
*831 FILLER_0_28_101
*832 FILLER_0_28_12
*833 FILLER_0_28_122
*834 FILLER_0_28_138
*835 FILLER_0_28_214
*836 FILLER_0_28_230
*837 FILLER_0_28_238
*838 FILLER_0_28_242
*839 FILLER_0_28_244
*840 FILLER_0_28_247
*841 FILLER_0_28_28
*842 FILLER_0_28_311
*843 FILLER_0_28_317
*844 FILLER_0_28_32
*845 FILLER_0_28_321
*846 FILLER_0_28_34
*847 FILLER_0_28_37
*848 FILLER_0_28_8
*849 FILLER_0_29_104
*850 FILLER_0_29_112
*851 FILLER_0_29_116
*852 FILLER_0_29_12
*853 FILLER_0_29_138
*854 FILLER_0_29_142
*855 FILLER_0_29_144
*856 FILLER_0_29_190
*857 FILLER_0_29_206
*858 FILLER_0_29_212
*859 FILLER_0_29_276
*860 FILLER_0_29_282
*861 FILLER_0_29_314
*862 FILLER_0_29_318
*863 FILLER_0_29_321
*864 FILLER_0_29_44
*865 FILLER_0_29_60
*866 FILLER_0_29_68
*867 FILLER_0_29_72
*868 FILLER_0_29_8
*869 FILLER_0_2_101
*870 FILLER_0_2_107
*871 FILLER_0_2_111
*872 FILLER_0_2_127
*873 FILLER_0_2_135
*874 FILLER_0_2_138
*875 FILLER_0_2_170
*876 FILLER_0_2_174
*877 FILLER_0_2_177
*878 FILLER_0_2_187
*879 FILLER_0_2_2
*880 FILLER_0_2_219
*881 FILLER_0_2_235
*882 FILLER_0_2_243
*883 FILLER_0_2_247
*884 FILLER_0_2_311
*885 FILLER_0_2_317
*886 FILLER_0_2_325
*887 FILLER_0_2_329
*888 FILLER_0_2_34
*889 FILLER_0_2_37
*890 FILLER_0_30_101
*891 FILLER_0_30_107
*892 FILLER_0_30_123
*893 FILLER_0_30_131
*894 FILLER_0_30_14
*895 FILLER_0_30_177
*896 FILLER_0_30_18
*897 FILLER_0_30_183
*898 FILLER_0_30_215
*899 FILLER_0_30_231
*900 FILLER_0_30_239
*901 FILLER_0_30_243
*902 FILLER_0_30_247
*903 FILLER_0_30_311
*904 FILLER_0_30_34
*905 FILLER_0_30_37
*906 FILLER_0_31_12
*907 FILLER_0_31_136
*908 FILLER_0_31_142
*909 FILLER_0_31_158
*910 FILLER_0_31_16
*911 FILLER_0_31_160
*912 FILLER_0_31_174
*913 FILLER_0_31_206
*914 FILLER_0_31_212
*915 FILLER_0_31_276
*916 FILLER_0_31_282
*917 FILLER_0_31_314
*918 FILLER_0_31_318
*919 FILLER_0_31_321
*920 FILLER_0_31_48
*921 FILLER_0_31_64
*922 FILLER_0_31_68
*923 FILLER_0_31_72
*924 FILLER_0_31_8
*925 FILLER_0_32_101
*926 FILLER_0_32_107
*927 FILLER_0_32_12
*928 FILLER_0_32_171
*929 FILLER_0_32_177
*930 FILLER_0_32_241
*931 FILLER_0_32_247
*932 FILLER_0_32_28
*933 FILLER_0_32_311
*934 FILLER_0_32_317
*935 FILLER_0_32_32
*936 FILLER_0_32_321
*937 FILLER_0_32_34
*938 FILLER_0_32_37
*939 FILLER_0_32_8
*940 FILLER_0_33_136
*941 FILLER_0_33_142
*942 FILLER_0_33_206
*943 FILLER_0_33_212
*944 FILLER_0_33_276
*945 FILLER_0_33_28
*946 FILLER_0_33_282
*947 FILLER_0_33_314
*948 FILLER_0_33_322
*949 FILLER_0_33_60
*950 FILLER_0_33_68
*951 FILLER_0_33_72
*952 FILLER_0_34_101
*953 FILLER_0_34_107
*954 FILLER_0_34_171
*955 FILLER_0_34_177
*956 FILLER_0_34_2
*957 FILLER_0_34_241
*958 FILLER_0_34_247
*959 FILLER_0_34_311
*960 FILLER_0_34_317
*961 FILLER_0_34_321
*962 FILLER_0_34_34
*963 FILLER_0_34_37
*964 FILLER_0_35_136
*965 FILLER_0_35_142
*966 FILLER_0_35_2
*967 FILLER_0_35_206
*968 FILLER_0_35_212
*969 FILLER_0_35_276
*970 FILLER_0_35_282
*971 FILLER_0_35_314
*972 FILLER_0_35_322
*973 FILLER_0_35_66
*974 FILLER_0_35_72
*975 FILLER_0_36_101
*976 FILLER_0_36_107
*977 FILLER_0_36_171
*978 FILLER_0_36_177
*979 FILLER_0_36_2
*980 FILLER_0_36_241
*981 FILLER_0_36_247
*982 FILLER_0_36_311
*983 FILLER_0_36_317
*984 FILLER_0_36_325
*985 FILLER_0_36_329
*986 FILLER_0_36_34
*987 FILLER_0_36_37
*988 FILLER_0_37_136
*989 FILLER_0_37_142
*990 FILLER_0_37_2
*991 FILLER_0_37_206
*992 FILLER_0_37_212
*993 FILLER_0_37_276
*994 FILLER_0_37_282
*995 FILLER_0_37_314
*996 FILLER_0_37_330
*997 FILLER_0_37_66
*998 FILLER_0_37_72
*999 FILLER_0_38_101
*1000 FILLER_0_38_107
*1001 FILLER_0_38_171
*1002 FILLER_0_38_177
*1003 FILLER_0_38_2
*1004 FILLER_0_38_241
*1005 FILLER_0_38_247
*1006 FILLER_0_38_311
*1007 FILLER_0_38_317
*1008 FILLER_0_38_325
*1009 FILLER_0_38_329
*1010 FILLER_0_38_34
*1011 FILLER_0_38_37
*1012 FILLER_0_39_136
*1013 FILLER_0_39_142
*1014 FILLER_0_39_2
*1015 FILLER_0_39_206
*1016 FILLER_0_39_212
*1017 FILLER_0_39_276
*1018 FILLER_0_39_282
*1019 FILLER_0_39_314
*1020 FILLER_0_39_330
*1021 FILLER_0_39_66
*1022 FILLER_0_39_72
*1023 FILLER_0_3_136
*1024 FILLER_0_3_142
*1025 FILLER_0_3_2
*1026 FILLER_0_3_206
*1027 FILLER_0_3_212
*1028 FILLER_0_3_276
*1029 FILLER_0_3_282
*1030 FILLER_0_3_314
*1031 FILLER_0_3_330
*1032 FILLER_0_3_66
*1033 FILLER_0_3_72
*1034 FILLER_0_40_101
*1035 FILLER_0_40_104
*1036 FILLER_0_40_107
*1037 FILLER_0_40_139
*1038 FILLER_0_40_147
*1039 FILLER_0_40_151
*1040 FILLER_0_40_157
*1041 FILLER_0_40_173
*1042 FILLER_0_40_177
*1043 FILLER_0_40_187
*1044 FILLER_0_40_191
*1045 FILLER_0_40_195
*1046 FILLER_0_40_2
*1047 FILLER_0_40_201
*1048 FILLER_0_40_203
*1049 FILLER_0_40_206
*1050 FILLER_0_40_238
*1051 FILLER_0_40_242
*1052 FILLER_0_40_244
*1053 FILLER_0_40_247
*1054 FILLER_0_40_311
*1055 FILLER_0_40_317
*1056 FILLER_0_40_325
*1057 FILLER_0_40_329
*1058 FILLER_0_40_34
*1059 FILLER_0_40_37
*1060 FILLER_0_41_111
*1061 FILLER_0_41_115
*1062 FILLER_0_41_117
*1063 FILLER_0_41_120
*1064 FILLER_0_41_126
*1065 FILLER_0_41_132
*1066 FILLER_0_41_136
*1067 FILLER_0_41_142
*1068 FILLER_0_41_144
*1069 FILLER_0_41_163
*1070 FILLER_0_41_167
*1071 FILLER_0_41_2
*1072 FILLER_0_41_207
*1073 FILLER_0_41_209
*1074 FILLER_0_41_212
*1075 FILLER_0_41_216
*1076 FILLER_0_41_220
*1077 FILLER_0_41_224
*1078 FILLER_0_41_226
*1079 FILLER_0_41_235
*1080 FILLER_0_41_267
*1081 FILLER_0_41_275
*1082 FILLER_0_41_279
*1083 FILLER_0_41_282
*1084 FILLER_0_41_314
*1085 FILLER_0_41_330
*1086 FILLER_0_41_66
*1087 FILLER_0_41_72
*1088 FILLER_0_41_80
*1089 FILLER_0_41_84
*1090 FILLER_0_42_104
*1091 FILLER_0_42_172
*1092 FILLER_0_42_174
*1093 FILLER_0_42_2
*1094 FILLER_0_42_201
*1095 FILLER_0_42_203
*1096 FILLER_0_42_236
*1097 FILLER_0_42_240
*1098 FILLER_0_42_244
*1099 FILLER_0_42_260
*1100 FILLER_0_42_268
*1101 FILLER_0_42_274
*1102 FILLER_0_42_308
*1103 FILLER_0_42_324
*1104 FILLER_0_42_328
*1105 FILLER_0_42_330
*1106 FILLER_0_42_36
*1107 FILLER_0_42_70
*1108 FILLER_0_42_80
*1109 FILLER_0_4_101
*1110 FILLER_0_4_107
*1111 FILLER_0_4_171
*1112 FILLER_0_4_177
*1113 FILLER_0_4_2
*1114 FILLER_0_4_241
*1115 FILLER_0_4_247
*1116 FILLER_0_4_311
*1117 FILLER_0_4_317
*1118 FILLER_0_4_325
*1119 FILLER_0_4_329
*1120 FILLER_0_4_34
*1121 FILLER_0_4_37
*1122 FILLER_0_5_136
*1123 FILLER_0_5_142
*1124 FILLER_0_5_2
*1125 FILLER_0_5_206
*1126 FILLER_0_5_212
*1127 FILLER_0_5_276
*1128 FILLER_0_5_282
*1129 FILLER_0_5_314
*1130 FILLER_0_5_330
*1131 FILLER_0_5_66
*1132 FILLER_0_5_72
*1133 FILLER_0_6_101
*1134 FILLER_0_6_107
*1135 FILLER_0_6_171
*1136 FILLER_0_6_177
*1137 FILLER_0_6_2
*1138 FILLER_0_6_241
*1139 FILLER_0_6_247
*1140 FILLER_0_6_311
*1141 FILLER_0_6_317
*1142 FILLER_0_6_325
*1143 FILLER_0_6_329
*1144 FILLER_0_6_34
*1145 FILLER_0_6_37
*1146 FILLER_0_7_136
*1147 FILLER_0_7_142
*1148 FILLER_0_7_2
*1149 FILLER_0_7_206
*1150 FILLER_0_7_212
*1151 FILLER_0_7_276
*1152 FILLER_0_7_282
*1153 FILLER_0_7_314
*1154 FILLER_0_7_330
*1155 FILLER_0_7_66
*1156 FILLER_0_7_72
*1157 FILLER_0_8_101
*1158 FILLER_0_8_107
*1159 FILLER_0_8_171
*1160 FILLER_0_8_177
*1161 FILLER_0_8_2
*1162 FILLER_0_8_241
*1163 FILLER_0_8_247
*1164 FILLER_0_8_311
*1165 FILLER_0_8_317
*1166 FILLER_0_8_325
*1167 FILLER_0_8_329
*1168 FILLER_0_8_34
*1169 FILLER_0_8_37
*1170 FILLER_0_9_136
*1171 FILLER_0_9_142
*1172 FILLER_0_9_2
*1173 FILLER_0_9_206
*1174 FILLER_0_9_212
*1175 FILLER_0_9_276
*1176 FILLER_0_9_282
*1177 FILLER_0_9_314
*1178 FILLER_0_9_322
*1179 FILLER_0_9_66
*1180 FILLER_0_9_72
*1181 PHY_EDGE_ROW_0_Left_43
*1182 PHY_EDGE_ROW_0_Right_0
*1183 PHY_EDGE_ROW_10_Left_53
*1184 PHY_EDGE_ROW_10_Right_10
*1185 PHY_EDGE_ROW_11_Left_54
*1186 PHY_EDGE_ROW_11_Right_11
*1187 PHY_EDGE_ROW_12_Left_55
*1188 PHY_EDGE_ROW_12_Right_12
*1189 PHY_EDGE_ROW_13_Left_56
*1190 PHY_EDGE_ROW_13_Right_13
*1191 PHY_EDGE_ROW_14_Left_57
*1192 PHY_EDGE_ROW_14_Right_14
*1193 PHY_EDGE_ROW_15_Left_58
*1194 PHY_EDGE_ROW_15_Right_15
*1195 PHY_EDGE_ROW_16_Left_59
*1196 PHY_EDGE_ROW_16_Right_16
*1197 PHY_EDGE_ROW_17_Left_60
*1198 PHY_EDGE_ROW_17_Right_17
*1199 PHY_EDGE_ROW_18_Left_61
*1200 PHY_EDGE_ROW_18_Right_18
*1201 PHY_EDGE_ROW_19_Left_62
*1202 PHY_EDGE_ROW_19_Right_19
*1203 PHY_EDGE_ROW_1_Left_44
*1204 PHY_EDGE_ROW_1_Right_1
*1205 PHY_EDGE_ROW_20_Left_63
*1206 PHY_EDGE_ROW_20_Right_20
*1207 PHY_EDGE_ROW_21_Left_64
*1208 PHY_EDGE_ROW_21_Right_21
*1209 PHY_EDGE_ROW_22_Left_65
*1210 PHY_EDGE_ROW_22_Right_22
*1211 PHY_EDGE_ROW_23_Left_66
*1212 PHY_EDGE_ROW_23_Right_23
*1213 PHY_EDGE_ROW_24_Left_67
*1214 PHY_EDGE_ROW_24_Right_24
*1215 PHY_EDGE_ROW_25_Left_68
*1216 PHY_EDGE_ROW_25_Right_25
*1217 PHY_EDGE_ROW_26_Left_69
*1218 PHY_EDGE_ROW_26_Right_26
*1219 PHY_EDGE_ROW_27_Left_70
*1220 PHY_EDGE_ROW_27_Right_27
*1221 PHY_EDGE_ROW_28_Left_71
*1222 PHY_EDGE_ROW_28_Right_28
*1223 PHY_EDGE_ROW_29_Left_72
*1224 PHY_EDGE_ROW_29_Right_29
*1225 PHY_EDGE_ROW_2_Left_45
*1226 PHY_EDGE_ROW_2_Right_2
*1227 PHY_EDGE_ROW_30_Left_73
*1228 PHY_EDGE_ROW_30_Right_30
*1229 PHY_EDGE_ROW_31_Left_74
*1230 PHY_EDGE_ROW_31_Right_31
*1231 PHY_EDGE_ROW_32_Left_75
*1232 PHY_EDGE_ROW_32_Right_32
*1233 PHY_EDGE_ROW_33_Left_76
*1234 PHY_EDGE_ROW_33_Right_33
*1235 PHY_EDGE_ROW_34_Left_77
*1236 PHY_EDGE_ROW_34_Right_34
*1237 PHY_EDGE_ROW_35_Left_78
*1238 PHY_EDGE_ROW_35_Right_35
*1239 PHY_EDGE_ROW_36_Left_79
*1240 PHY_EDGE_ROW_36_Right_36
*1241 PHY_EDGE_ROW_37_Left_80
*1242 PHY_EDGE_ROW_37_Right_37
*1243 PHY_EDGE_ROW_38_Left_81
*1244 PHY_EDGE_ROW_38_Right_38
*1245 PHY_EDGE_ROW_39_Left_82
*1246 PHY_EDGE_ROW_39_Right_39
*1247 PHY_EDGE_ROW_3_Left_46
*1248 PHY_EDGE_ROW_3_Right_3
*1249 PHY_EDGE_ROW_40_Left_83
*1250 PHY_EDGE_ROW_40_Right_40
*1251 PHY_EDGE_ROW_41_Left_84
*1252 PHY_EDGE_ROW_41_Right_41
*1253 PHY_EDGE_ROW_42_Left_85
*1254 PHY_EDGE_ROW_42_Right_42
*1255 PHY_EDGE_ROW_4_Left_47
*1256 PHY_EDGE_ROW_4_Right_4
*1257 PHY_EDGE_ROW_5_Left_48
*1258 PHY_EDGE_ROW_5_Right_5
*1259 PHY_EDGE_ROW_6_Left_49
*1260 PHY_EDGE_ROW_6_Right_6
*1261 PHY_EDGE_ROW_7_Left_50
*1262 PHY_EDGE_ROW_7_Right_7
*1263 PHY_EDGE_ROW_8_Left_51
*1264 PHY_EDGE_ROW_8_Right_8
*1265 PHY_EDGE_ROW_9_Left_52
*1266 PHY_EDGE_ROW_9_Right_9
*1267 TAP_TAPCELL_ROW_0_86
*1268 TAP_TAPCELL_ROW_0_87
*1269 TAP_TAPCELL_ROW_0_88
*1270 TAP_TAPCELL_ROW_0_89
*1271 TAP_TAPCELL_ROW_0_90
*1272 TAP_TAPCELL_ROW_0_91
*1273 TAP_TAPCELL_ROW_0_92
*1274 TAP_TAPCELL_ROW_0_93
*1275 TAP_TAPCELL_ROW_0_94
*1276 TAP_TAPCELL_ROW_10_135
*1277 TAP_TAPCELL_ROW_10_136
*1278 TAP_TAPCELL_ROW_10_137
*1279 TAP_TAPCELL_ROW_10_138
*1280 TAP_TAPCELL_ROW_10_139
*1281 TAP_TAPCELL_ROW_11_140
*1282 TAP_TAPCELL_ROW_11_141
*1283 TAP_TAPCELL_ROW_11_142
*1284 TAP_TAPCELL_ROW_11_143
*1285 TAP_TAPCELL_ROW_12_144
*1286 TAP_TAPCELL_ROW_12_145
*1287 TAP_TAPCELL_ROW_12_146
*1288 TAP_TAPCELL_ROW_12_147
*1289 TAP_TAPCELL_ROW_12_148
*1290 TAP_TAPCELL_ROW_13_149
*1291 TAP_TAPCELL_ROW_13_150
*1292 TAP_TAPCELL_ROW_13_151
*1293 TAP_TAPCELL_ROW_13_152
*1294 TAP_TAPCELL_ROW_14_153
*1295 TAP_TAPCELL_ROW_14_154
*1296 TAP_TAPCELL_ROW_14_155
*1297 TAP_TAPCELL_ROW_14_156
*1298 TAP_TAPCELL_ROW_14_157
*1299 TAP_TAPCELL_ROW_15_158
*1300 TAP_TAPCELL_ROW_15_159
*1301 TAP_TAPCELL_ROW_15_160
*1302 TAP_TAPCELL_ROW_15_161
*1303 TAP_TAPCELL_ROW_16_162
*1304 TAP_TAPCELL_ROW_16_163
*1305 TAP_TAPCELL_ROW_16_164
*1306 TAP_TAPCELL_ROW_16_165
*1307 TAP_TAPCELL_ROW_16_166
*1308 TAP_TAPCELL_ROW_17_167
*1309 TAP_TAPCELL_ROW_17_168
*1310 TAP_TAPCELL_ROW_17_169
*1311 TAP_TAPCELL_ROW_17_170
*1312 TAP_TAPCELL_ROW_18_171
*1313 TAP_TAPCELL_ROW_18_172
*1314 TAP_TAPCELL_ROW_18_173
*1315 TAP_TAPCELL_ROW_18_174
*1316 TAP_TAPCELL_ROW_18_175
*1317 TAP_TAPCELL_ROW_19_176
*1318 TAP_TAPCELL_ROW_19_177
*1319 TAP_TAPCELL_ROW_19_178
*1320 TAP_TAPCELL_ROW_19_179
*1321 TAP_TAPCELL_ROW_1_95
*1322 TAP_TAPCELL_ROW_1_96
*1323 TAP_TAPCELL_ROW_1_97
*1324 TAP_TAPCELL_ROW_1_98
*1325 TAP_TAPCELL_ROW_20_180
*1326 TAP_TAPCELL_ROW_20_181
*1327 TAP_TAPCELL_ROW_20_182
*1328 TAP_TAPCELL_ROW_20_183
*1329 TAP_TAPCELL_ROW_20_184
*1330 TAP_TAPCELL_ROW_21_185
*1331 TAP_TAPCELL_ROW_21_186
*1332 TAP_TAPCELL_ROW_21_187
*1333 TAP_TAPCELL_ROW_21_188
*1334 TAP_TAPCELL_ROW_22_189
*1335 TAP_TAPCELL_ROW_22_190
*1336 TAP_TAPCELL_ROW_22_191
*1337 TAP_TAPCELL_ROW_22_192
*1338 TAP_TAPCELL_ROW_22_193
*1339 TAP_TAPCELL_ROW_23_194
*1340 TAP_TAPCELL_ROW_23_195
*1341 TAP_TAPCELL_ROW_23_196
*1342 TAP_TAPCELL_ROW_23_197
*1343 TAP_TAPCELL_ROW_24_198
*1344 TAP_TAPCELL_ROW_24_199
*1345 TAP_TAPCELL_ROW_24_200
*1346 TAP_TAPCELL_ROW_24_201
*1347 TAP_TAPCELL_ROW_24_202
*1348 TAP_TAPCELL_ROW_25_203
*1349 TAP_TAPCELL_ROW_25_204
*1350 TAP_TAPCELL_ROW_25_205
*1351 TAP_TAPCELL_ROW_25_206
*1352 TAP_TAPCELL_ROW_26_207
*1353 TAP_TAPCELL_ROW_26_208
*1354 TAP_TAPCELL_ROW_26_209
*1355 TAP_TAPCELL_ROW_26_210
*1356 TAP_TAPCELL_ROW_26_211
*1357 TAP_TAPCELL_ROW_27_212
*1358 TAP_TAPCELL_ROW_27_213
*1359 TAP_TAPCELL_ROW_27_214
*1360 TAP_TAPCELL_ROW_27_215
*1361 TAP_TAPCELL_ROW_28_216
*1362 TAP_TAPCELL_ROW_28_217
*1363 TAP_TAPCELL_ROW_28_218
*1364 TAP_TAPCELL_ROW_28_219
*1365 TAP_TAPCELL_ROW_28_220
*1366 TAP_TAPCELL_ROW_29_221
*1367 TAP_TAPCELL_ROW_29_222
*1368 TAP_TAPCELL_ROW_29_223
*1369 TAP_TAPCELL_ROW_29_224
*1370 TAP_TAPCELL_ROW_2_100
*1371 TAP_TAPCELL_ROW_2_101
*1372 TAP_TAPCELL_ROW_2_102
*1373 TAP_TAPCELL_ROW_2_103
*1374 TAP_TAPCELL_ROW_2_99
*1375 TAP_TAPCELL_ROW_30_225
*1376 TAP_TAPCELL_ROW_30_226
*1377 TAP_TAPCELL_ROW_30_227
*1378 TAP_TAPCELL_ROW_30_228
*1379 TAP_TAPCELL_ROW_30_229
*1380 TAP_TAPCELL_ROW_31_230
*1381 TAP_TAPCELL_ROW_31_231
*1382 TAP_TAPCELL_ROW_31_232
*1383 TAP_TAPCELL_ROW_31_233
*1384 TAP_TAPCELL_ROW_32_234
*1385 TAP_TAPCELL_ROW_32_235
*1386 TAP_TAPCELL_ROW_32_236
*1387 TAP_TAPCELL_ROW_32_237
*1388 TAP_TAPCELL_ROW_32_238
*1389 TAP_TAPCELL_ROW_33_239
*1390 TAP_TAPCELL_ROW_33_240
*1391 TAP_TAPCELL_ROW_33_241
*1392 TAP_TAPCELL_ROW_33_242
*1393 TAP_TAPCELL_ROW_34_243
*1394 TAP_TAPCELL_ROW_34_244
*1395 TAP_TAPCELL_ROW_34_245
*1396 TAP_TAPCELL_ROW_34_246
*1397 TAP_TAPCELL_ROW_34_247
*1398 TAP_TAPCELL_ROW_35_248
*1399 TAP_TAPCELL_ROW_35_249
*1400 TAP_TAPCELL_ROW_35_250
*1401 TAP_TAPCELL_ROW_35_251
*1402 TAP_TAPCELL_ROW_36_252
*1403 TAP_TAPCELL_ROW_36_253
*1404 TAP_TAPCELL_ROW_36_254
*1405 TAP_TAPCELL_ROW_36_255
*1406 TAP_TAPCELL_ROW_36_256
*1407 TAP_TAPCELL_ROW_37_257
*1408 TAP_TAPCELL_ROW_37_258
*1409 TAP_TAPCELL_ROW_37_259
*1410 TAP_TAPCELL_ROW_37_260
*1411 TAP_TAPCELL_ROW_38_261
*1412 TAP_TAPCELL_ROW_38_262
*1413 TAP_TAPCELL_ROW_38_263
*1414 TAP_TAPCELL_ROW_38_264
*1415 TAP_TAPCELL_ROW_38_265
*1416 TAP_TAPCELL_ROW_39_266
*1417 TAP_TAPCELL_ROW_39_267
*1418 TAP_TAPCELL_ROW_39_268
*1419 TAP_TAPCELL_ROW_39_269
*1420 TAP_TAPCELL_ROW_3_104
*1421 TAP_TAPCELL_ROW_3_105
*1422 TAP_TAPCELL_ROW_3_106
*1423 TAP_TAPCELL_ROW_3_107
*1424 TAP_TAPCELL_ROW_40_270
*1425 TAP_TAPCELL_ROW_40_271
*1426 TAP_TAPCELL_ROW_40_272
*1427 TAP_TAPCELL_ROW_40_273
*1428 TAP_TAPCELL_ROW_40_274
*1429 TAP_TAPCELL_ROW_41_275
*1430 TAP_TAPCELL_ROW_41_276
*1431 TAP_TAPCELL_ROW_41_277
*1432 TAP_TAPCELL_ROW_41_278
*1433 TAP_TAPCELL_ROW_42_279
*1434 TAP_TAPCELL_ROW_42_280
*1435 TAP_TAPCELL_ROW_42_281
*1436 TAP_TAPCELL_ROW_42_282
*1437 TAP_TAPCELL_ROW_42_283
*1438 TAP_TAPCELL_ROW_42_284
*1439 TAP_TAPCELL_ROW_42_285
*1440 TAP_TAPCELL_ROW_42_286
*1441 TAP_TAPCELL_ROW_42_287