*SPEF "ieee 1481-1999"
*DESIGN "totp"
*DATE "11:11:11 Fri 11 11, 1111"
*VENDOR "OpenRCX"
*PROGRAM "Parallel Extraction"
*VERSION "1.0"
*DESIGN_FLOW "NAME_SCOPE LOCAL" "PIN_CAP NONE"
*DIVIDER /
*DELIMITER :
*BUS_DELIMITER []
*T_UNIT 1 NS
*C_UNIT 1 PF
*R_UNIT 1 OHM
*L_UNIT 1 HENRY

*NAME_MAP
*1 clk
*2 in[0]
*3 in[10]
*4 in[11]
*5 in[12]
*6 in[13]
*7 in[14]
*8 in[15]
*9 in[16]
*10 in[17]
*11 in[1]
*12 in[2]
*13 in[3]
*14 in[4]
*15 in[5]
*16 in[6]
*17 in[7]
*18 in[8]
*19 in[9]
*20 out[0]
*21 out[10]
*22 out[11]
*23 out[1]
*24 out[2]
*25 out[3]
*26 out[4]
*27 out[5]
*28 out[6]
*29 out[7]
*30 out[8]
*31 out[9]
*32 rst_n
*35 _0000_
*36 _0001_
*37 _0002_
*38 _0003_
*39 _0004_
*40 _0005_
*41 _0006_
*42 _0007_
*43 _0008_
*44 _0009_
*45 _0010_
*46 _0011_
*47 _0012_
*48 _0013_
*49 _0014_
*50 _0015_
*51 _0016_
*52 _0017_
*53 _0018_
*54 _0019_
*55 _0020_
*56 _0021_
*57 _0022_
*58 _0023_
*59 _0024_
*60 _0025_
*61 _0026_
*62 _0027_
*63 _0028_
*64 _0029_
*65 _0030_
*66 _0031_
*67 _0032_
*68 _0033_
*69 _0034_
*70 _0035_
*71 _0036_
*72 _0037_
*73 _0038_
*74 _0039_
*75 _0040_
*76 _0041_
*77 _0042_
*78 _0043_
*79 _0044_
*80 _0045_
*81 _0046_
*82 _0047_
*83 _0048_
*84 _0049_
*85 _0050_
*86 _0051_
*87 _0052_
*88 _0053_
*89 _0054_
*90 _0055_
*91 _0056_
*92 _0057_
*93 _0058_
*94 _0059_
*95 _0060_
*96 _0061_
*97 _0062_
*98 _0063_
*99 _0064_
*100 _0065_
*101 _0066_
*102 _0067_
*103 _0068_
*104 _0069_
*105 _0070_
*106 _0071_
*107 _0072_
*108 _0073_
*109 _0074_
*110 _0075_
*111 _0076_
*112 _0077_
*113 _0078_
*114 _0079_
*115 _0080_
*116 _0081_
*117 _0082_
*118 _0083_
*119 _0084_
*120 _0085_
*121 _0086_
*122 _0087_
*123 _0088_
*124 _0089_
*125 _0090_
*126 _0091_
*127 _0092_
*128 _0093_
*129 _0094_
*130 _0095_
*131 _0096_
*132 _0097_
*133 _0098_
*134 _0099_
*135 _0100_
*136 _0101_
*137 _0102_
*138 _0103_
*139 _0104_
*140 _0105_
*141 _0106_
*142 _0107_
*143 _0108_
*144 _0109_
*145 _0110_
*146 _0111_
*147 _0112_
*148 _0113_
*149 _0114_
*150 _0115_
*151 _0116_
*152 _0117_
*153 _0118_
*154 _0119_
*155 _0120_
*156 _0121_
*157 _0122_
*158 _0123_
*159 _0124_
*160 _0125_
*161 _0126_
*162 _0127_
*163 _0128_
*164 _0129_
*165 _0130_
*166 _0131_
*167 _0132_
*168 _0133_
*169 _0134_
*170 _0135_
*171 _0136_
*172 _0137_
*173 _0138_
*174 _0139_
*175 _0140_
*176 _0141_
*177 _0142_
*178 _0143_
*179 _0144_
*180 _0145_
*181 _0146_
*182 _0147_
*183 _0148_
*184 _0149_
*185 _0150_
*186 _0151_
*187 _0152_
*188 _0153_
*189 _0154_
*190 _0155_
*191 _0156_
*192 _0157_
*193 _0158_
*194 _0159_
*195 _0160_
*196 _0161_
*197 _0162_
*198 _0163_
*199 _0164_
*200 _0165_
*201 _0166_
*202 _0167_
*203 _0168_
*204 _0169_
*205 _0170_
*206 _0171_
*207 _0172_
*208 _0173_
*209 _0174_
*210 _0175_
*211 _0176_
*212 _0177_
*213 _0178_
*214 _0179_
*215 _0180_
*216 _0181_
*217 _0182_
*218 _0183_
*219 _0184_
*220 _0185_
*221 _0186_
*222 _0187_
*223 _0188_
*224 _0189_
*225 _0190_
*226 _0191_
*227 _0192_
*228 _0193_
*229 _0194_
*230 _0195_
*231 _0196_
*232 _0197_
*233 _0198_
*234 _0199_
*235 _0200_
*236 _0201_
*237 _0202_
*238 _0203_
*239 _0204_
*240 _0205_
*241 _0206_
*242 _0207_
*243 _0208_
*244 _0209_
*245 _0210_
*246 _0211_
*247 _0212_
*248 _0213_
*249 _0214_
*250 _0215_
*251 _0216_
*252 _0217_
*253 _0218_
*254 _0219_
*255 _0220_
*256 _0221_
*257 _0222_
*258 _0223_
*259 _0224_
*260 _0225_
*261 _0226_
*262 _0227_
*263 _0228_
*264 _0229_
*265 _0230_
*266 _0231_
*267 _0232_
*268 _0233_
*269 _0234_
*270 _0235_
*271 _0236_
*272 _0237_
*273 _0238_
*274 _0239_
*275 _0240_
*276 _0241_
*277 _0242_
*278 _0243_
*279 _0244_
*280 _0245_
*281 _0246_
*282 _0247_
*283 _0248_
*284 _0249_
*285 _0250_
*286 _0251_
*287 _0252_
*288 _0253_
*289 _0254_
*290 _0255_
*291 _0256_
*292 _0257_
*293 _0258_
*294 _0259_
*295 _0260_
*296 _0261_
*297 _0262_
*298 _0263_
*299 _0264_
*300 _0265_
*301 _0266_
*302 _0267_
*303 _0268_
*304 _0269_
*305 _0270_
*306 _0271_
*307 _0272_
*308 _0273_
*309 _0274_
*310 _0275_
*311 _0276_
*312 _0277_
*313 _0278_
*314 _0279_
*315 _0280_
*316 _0281_
*317 _0282_
*318 _0283_
*319 _0284_
*320 _0285_
*321 _0286_
*322 _0287_
*323 _0288_
*324 _0289_
*325 _0290_
*326 _0291_
*327 _0292_
*328 _0293_
*329 _0294_
*330 _0295_
*331 _0296_
*332 _0297_
*333 _0298_
*334 _0299_
*335 _0300_
*336 _0301_
*337 _0302_
*338 _0303_
*339 _0304_
*340 _0305_
*341 _0306_
*342 _0307_
*343 _0308_
*344 _0309_
*345 _0310_
*346 _0311_
*347 _0312_
*348 _0313_
*349 _0314_
*350 _0315_
*351 _0316_
*352 _0317_
*353 _0318_
*354 _0319_
*355 _0320_
*356 _0321_
*357 _0322_
*358 _0323_
*359 _0324_
*360 _0325_
*361 _0326_
*362 _0327_
*363 _0328_
*364 _0329_
*365 _0330_
*366 _0331_
*367 _0332_
*368 _0333_
*369 _0334_
*370 _0335_
*371 _0336_
*372 _0337_
*373 _0338_
*374 _0339_
*375 _0340_
*376 _0341_
*377 _0342_
*378 _0343_
*379 _0344_
*380 _0345_
*381 _0346_
*382 _0347_
*383 _0348_
*384 _0349_
*385 _0350_
*386 _0351_
*387 _0352_
*388 _0353_
*389 _0354_
*390 _0355_
*391 _0356_
*392 _0357_
*393 _0358_
*394 _0359_
*395 _0360_
*396 _0361_
*397 _0362_
*398 _0363_
*399 _0364_
*400 _0365_
*401 _0366_
*402 _0367_
*403 _0368_
*404 _0369_
*405 _0370_
*406 _0371_
*407 _0372_
*408 _0373_
*409 _0374_
*410 _0375_
*411 _0376_
*412 _0377_
*413 _0378_
*414 _0379_
*415 _0380_
*416 _0381_
*417 _0382_
*418 _0383_
*419 _0384_
*420 _0385_
*421 _0386_
*422 _0387_
*423 _0388_
*424 _0389_
*425 _0390_
*426 _0391_
*427 _0392_
*428 _0393_
*429 _0394_
*430 _0395_
*431 _0396_
*432 _0397_
*433 _0398_
*434 _0399_
*435 _0400_
*436 _0401_
*437 _0402_
*438 _0403_
*439 _0404_
*440 _0405_
*441 _0406_
*442 _0407_
*443 _0408_
*444 _0409_
*445 _0410_
*446 _0411_
*447 _0412_
*448 _0413_
*449 _0414_
*450 _0415_
*451 _0416_
*452 _0417_
*453 _0418_
*454 _0419_
*455 _0420_
*456 _0421_
*457 _0422_
*458 _0423_
*459 _0424_
*460 _0425_
*461 _0426_
*462 _0427_
*463 _0428_
*464 _0429_
*465 _0430_
*466 _0431_
*467 _0432_
*468 _0433_
*469 _0434_
*470 _0435_
*471 _0436_
*472 _0437_
*473 _0438_
*474 _0439_
*475 _0440_
*476 _0441_
*477 _0442_
*478 _0443_
*479 _0444_
*480 _0445_
*481 _0446_
*482 _0447_
*483 _0448_
*484 _0449_
*485 _0450_
*486 _0451_
*487 _0452_
*488 _0453_
*489 _0454_
*490 _0455_
*491 _0456_
*492 _0457_
*493 _0458_
*494 _0459_
*495 _0460_
*496 _0461_
*497 _0462_
*498 _0463_
*499 _0464_
*500 _0465_
*501 _0466_
*502 _0467_
*503 _0468_
*504 _0469_
*505 _0470_
*506 _0471_
*507 _0472_
*508 _0473_
*509 _0474_
*510 _0475_
*511 _0476_
*512 _0477_
*513 _0478_
*514 _0479_
*515 _0480_
*516 _0481_
*517 _0482_
*518 _0483_
*519 _0484_
*520 _0485_
*521 _0486_
*522 _0487_
*523 _0488_
*524 _0489_
*525 _0490_
*526 _0491_
*527 _0492_
*528 _0493_
*529 _0494_
*530 _0495_
*531 _0496_
*532 _0497_
*533 _0498_
*534 _0499_
*535 _0500_
*536 _0501_
*537 _0502_
*538 _0503_
*539 _0504_
*540 _0505_
*541 _0506_
*542 _0507_
*543 _0508_
*544 _0509_
*545 _0510_
*546 _0511_
*547 _0512_
*548 _0513_
*549 _0514_
*550 _0515_
*551 _0516_
*552 _0517_
*553 _0518_
*554 _0519_
*555 _0520_
*556 _0521_
*557 _0522_
*558 _0523_
*559 _0524_
*560 _0525_
*561 _0526_
*562 _0527_
*563 _0528_
*564 _0529_
*565 _0530_
*566 _0531_
*567 _0532_
*568 _0533_
*569 _0534_
*570 _0535_
*571 _0536_
*572 _0537_
*573 _0538_
*574 _0539_
*575 _0540_
*576 _0541_
*577 _0542_
*578 _0543_
*579 _0544_
*580 _0545_
*581 _0546_
*582 _0547_
*583 _0548_
*584 _0549_
*585 _0550_
*586 _0551_
*587 _0552_
*588 _0553_
*589 _0554_
*590 _0555_
*591 _0556_
*592 _0557_
*593 _0558_
*594 _0559_
*595 _0560_
*596 _0561_
*597 _0562_
*598 _0563_
*599 _0564_
*600 _0565_
*601 _0566_
*602 _0567_
*603 _0568_
*604 _0569_
*605 _0570_
*606 _0571_
*607 _0572_
*608 _0573_
*609 _0574_
*610 _0575_
*611 _0576_
*612 _0577_
*613 _0578_
*614 _0579_
*615 _0580_
*616 _0581_
*617 _0582_
*618 _0583_
*619 _0584_
*620 _0585_
*621 _0586_
*622 _0587_
*623 _0588_
*624 _0589_
*625 _0590_
*626 _0591_
*627 _0592_
*628 _0593_
*629 _0594_
*630 _0595_
*631 _0596_
*632 _0597_
*633 _0598_
*634 _0599_
*635 _0600_
*636 _0601_
*637 _0602_
*638 _0603_
*639 _0604_
*640 _0605_
*641 _0606_
*642 _0607_
*643 _0608_
*644 _0609_
*645 _0610_
*646 _0611_
*647 _0612_
*648 _0613_
*649 _0614_
*650 _0615_
*651 _0616_
*652 _0617_
*653 _0618_
*654 _0619_
*655 _0620_
*656 _0621_
*657 _0622_
*658 _0623_
*659 _0624_
*660 _0625_
*661 _0626_
*662 _0627_
*663 _0628_
*664 _0629_
*665 _0630_
*666 _0631_
*667 _0632_
*668 _0633_
*669 _0634_
*670 _0635_
*671 _0636_
*672 _0637_
*673 _0638_
*674 _0639_
*675 _0640_
*676 _0641_
*677 _0642_
*678 _0643_
*679 _0644_
*680 _0645_
*681 _0646_
*682 _0647_
*683 _0648_
*684 _0649_
*685 _0650_
*686 _0651_
*687 _0652_
*688 _0653_
*689 _0654_
*690 _0655_
*691 _0656_
*692 _0657_
*693 _0658_
*694 _0659_
*695 _0660_
*696 _0661_
*697 _0662_
*698 _0663_
*699 _0664_
*700 _0665_
*701 _0666_
*702 _0667_
*703 _0668_
*704 _0669_
*705 _0670_
*706 _0671_
*707 _0672_
*708 _0673_
*709 _0674_
*710 _0675_
*711 _0676_
*712 _0677_
*713 _0678_
*714 _0679_
*715 _0680_
*716 _0681_
*717 _0682_
*718 _0683_
*719 _0684_
*720 _0685_
*721 _0686_
*722 _0687_
*723 _0688_
*724 _0689_
*725 _0690_
*726 _0691_
*727 _0692_
*728 _0693_
*729 _0694_
*730 _0695_
*731 _0696_
*732 _0697_
*733 _0698_
*734 _0699_
*735 _0700_
*736 _0701_
*737 _0702_
*738 _0703_
*739 _0704_
*740 _0705_
*741 _0706_
*742 _0707_
*743 _0708_
*744 _0709_
*745 _0710_
*746 _0711_
*747 _0712_
*748 _0713_
*749 _0714_
*750 _0715_
*751 _0716_
*752 _0717_
*753 _0718_
*754 _0719_
*755 _0720_
*756 _0721_
*757 _0722_
*758 _0723_
*759 _0724_
*760 _0725_
*761 _0726_
*762 _0727_
*763 _0728_
*764 _0729_
*765 _0730_
*766 _0731_
*767 _0732_
*768 _0733_
*769 _0734_
*770 _0735_
*771 _0736_
*772 _0737_
*773 _0738_
*774 _0739_
*775 _0740_
*776 _0741_
*777 _0742_
*778 _0743_
*779 _0744_
*780 _0745_
*781 _0746_
*782 _0747_
*783 _0748_
*784 _0749_
*785 _0750_
*786 _0751_
*787 _0752_
*788 _0753_
*789 _0754_
*790 _0755_
*791 _0756_
*792 _0757_
*793 _0758_
*794 _0759_
*795 _0760_
*796 _0761_
*797 _0762_
*798 _0763_
*799 _0764_
*800 _0765_
*801 _0766_
*802 _0767_
*803 _0768_
*804 _0769_
*805 _0770_
*806 _0771_
*807 _0772_
*808 _0773_
*809 _0774_
*810 _0775_
*811 _0776_
*812 _0777_
*813 _0778_
*814 _0779_
*815 _0780_
*816 _0781_
*817 _0782_
*818 _0783_
*819 _0784_
*820 _0785_
*821 _0786_
*822 _0787_
*823 _0788_
*824 _0789_
*825 _0790_
*826 _0791_
*827 _0792_
*828 _0793_
*829 _0794_
*830 _0795_
*831 _0796_
*832 _0797_
*833 _0798_
*834 _0799_
*835 _0800_
*836 _0801_
*837 _0802_
*838 _0803_
*839 _0804_
*840 _0805_
*841 _0806_
*842 _0807_
*843 _0808_
*844 _0809_
*845 _0810_
*846 _0811_
*847 _0812_
*848 _0813_
*849 _0814_
*850 _0815_
*851 _0816_
*852 _0817_
*853 _0818_
*854 _0819_
*855 _0820_
*856 _0821_
*857 _0822_
*858 _0823_
*859 _0824_
*860 _0825_
*861 _0826_
*862 _0827_
*863 _0828_
*864 _0829_
*865 _0830_
*866 _0831_
*867 _0832_
*868 _0833_
*869 _0834_
*870 _0835_
*871 _0836_
*872 _0837_
*873 _0838_
*874 _0839_
*875 _0840_
*876 _0841_
*877 _0842_
*878 _0843_
*879 _0844_
*880 _0845_
*881 _0846_
*882 _0847_
*883 _0848_
*884 _0849_
*885 _0850_
*886 _0851_
*887 _0852_
*888 _0853_
*889 _0854_
*890 _0855_
*891 _0856_
*892 _0857_
*893 _0858_
*894 _0859_
*895 _0860_
*896 _0861_
*897 _0862_
*898 _0863_
*899 _0864_
*900 _0865_
*901 _0866_
*902 _0867_
*903 _0868_
*904 _0869_
*905 _0870_
*906 _0871_
*907 _0872_
*908 _0873_
*909 _0874_
*910 _0875_
*911 _0876_
*912 _0877_
*913 _0878_
*914 _0879_
*915 _0880_
*916 _0881_
*917 _0882_
*918 _0883_
*919 _0884_
*920 _0885_
*921 _0886_
*922 _0887_
*923 _0888_
*924 _0889_
*925 _0890_
*926 _0891_
*927 _0892_
*928 _0893_
*929 _0894_
*930 _0895_
*931 _0896_
*932 _0897_
*933 _0898_
*934 _0899_
*935 _0900_
*936 _0901_
*937 _0902_
*938 _0903_
*939 _0904_
*940 _0905_
*941 _0906_
*942 _0907_
*943 _0908_
*944 _0909_
*945 _0910_
*946 _0911_
*947 _0912_
*948 _0913_
*949 _0914_
*950 _0915_
*951 _0916_
*952 _0917_
*953 _0918_
*954 _0919_
*955 _0920_
*956 _0921_
*957 _0922_
*958 _0923_
*959 _0924_
*960 _0925_
*961 _0926_
*962 _0927_
*963 _0928_
*964 _0929_
*965 _0930_
*966 _0931_
*967 _0932_
*968 _0933_
*969 _0934_
*970 _0935_
*971 _0936_
*972 _0937_
*973 _0938_
*974 _0939_
*975 _0940_
*976 _0941_
*977 _0942_
*978 _0943_
*979 _0944_
*980 _0945_
*981 _0946_
*982 _0947_
*983 _0948_
*984 _0949_
*985 _0950_
*986 _0951_
*987 _0952_
*988 _0953_
*989 _0954_
*990 _0955_
*991 _0956_
*992 _0957_
*993 _0958_
*994 _0959_
*995 _0960_
*996 _0961_
*997 _0962_
*998 _0963_
*999 _0964_
*1000 _0965_
*1001 _0966_
*1002 _0967_
*1003 _0968_
*1004 _0969_
*1005 _0970_
*1006 _0971_
*1007 _0972_
*1008 _0973_
*1009 _0974_
*1010 _0975_
*1011 _0976_
*1012 _0977_
*1013 _0978_
*1014 _0979_
*1015 _0980_
*1016 _0981_
*1017 _0982_
*1018 _0983_
*1019 _0984_
*1020 _0985_
*1021 _0986_
*1022 _0987_
*1023 _0988_
*1024 _0989_
*1025 _0990_
*1026 _0991_
*1027 _0992_
*1028 _0993_
*1029 _0994_
*1030 _0995_
*1031 _0996_
*1032 _0997_
*1033 _0998_
*1034 _0999_
*1035 _1000_
*1036 _1001_
*1037 _1002_
*1038 _1003_
*1039 _1004_
*1040 _1005_
*1041 _1006_
*1042 _1007_
*1043 _1008_
*1044 _1009_
*1045 _1010_
*1046 _1011_
*1047 _1012_
*1048 _1013_
*1049 _1014_
*1050 _1015_
*1051 _1016_
*1052 _1017_
*1053 _1018_
*1054 _1019_
*1055 _1020_
*1056 _1021_
*1057 _1022_
*1058 _1023_
*1059 _1024_
*1060 _1025_
*1061 _1026_
*1062 _1027_
*1063 _1028_
*1064 _1029_
*1065 _1030_
*1066 _1031_
*1067 _1032_
*1068 _1033_
*1069 _1034_
*1070 _1035_
*1071 _1036_
*1072 _1037_
*1073 _1038_
*1074 _1039_
*1075 _1040_
*1076 _1041_
*1077 _1042_
*1078 _1043_
*1079 _1044_
*1080 _1045_
*1081 _1046_
*1082 _1047_
*1083 _1048_
*1084 _1049_
*1085 _1050_
*1086 _1051_
*1087 _1052_
*1088 _1053_
*1089 _1054_
*1090 _1055_
*1091 _1056_
*1092 _1057_
*1093 _1058_
*1094 _1059_
*1095 _1060_
*1096 _1061_
*1097 _1062_
*1098 _1063_
*1099 _1064_
*1100 _1065_
*1101 _1066_
*1102 _1067_
*1103 _1068_
*1104 _1069_
*1105 _1070_
*1106 _1071_
*1107 _1072_
*1108 _1073_
*1109 _1074_
*1110 _1075_
*1111 _1076_
*1112 _1077_
*1113 _1078_
*1114 _1079_
*1115 _1080_
*1116 _1081_
*1117 _1082_
*1118 _1083_
*1119 _1084_
*1120 _1085_
*1121 _1086_
*1122 _1087_
*1123 _1088_
*1124 _1089_
*1125 _1090_
*1126 _1091_
*1127 _1092_
*1128 _1093_
*1129 _1094_
*1130 _1095_
*1131 _1096_
*1132 _1097_
*1133 _1098_
*1134 _1099_
*1135 _1100_
*1136 _1101_
*1137 _1102_
*1138 _1103_
*1139 _1104_
*1140 _1105_
*1141 _1106_
*1142 _1107_
*1143 _1108_
*1144 _1109_
*1145 _1110_
*1146 _1111_
*1147 _1112_
*1148 _1113_
*1149 _1114_
*1150 _1115_
*1151 _1116_
*1152 _1117_
*1153 _1118_
*1154 _1119_
*1155 _1120_
*1156 _1121_
*1157 _1122_
*1158 _1123_
*1159 _1124_
*1160 _1125_
*1161 _1126_
*1162 _1127_
*1163 _1128_
*1164 _1129_
*1165 _1130_
*1166 _1131_
*1167 _1132_
*1168 _1133_
*1169 _1134_
*1170 _1135_
*1171 _1136_
*1172 _1137_
*1173 _1138_
*1174 _1139_
*1175 _1140_
*1176 _1141_
*1177 _1142_
*1178 _1143_
*1179 _1144_
*1180 _1145_
*1181 _1146_
*1182 _1147_
*1183 _1148_
*1184 _1149_
*1185 _1150_
*1186 _1151_
*1187 _1152_
*1188 _1153_
*1189 _1154_
*1190 _1155_
*1191 _1156_
*1192 _1157_
*1193 _1158_
*1194 _1159_
*1195 _1160_
*1196 _1161_
*1197 _1162_
*1198 _1163_
*1199 _1164_
*1200 _1165_
*1201 _1166_
*1202 _1167_
*1203 _1168_
*1204 _1169_
*1205 _1170_
*1206 _1171_
*1207 _1172_
*1208 _1173_
*1209 _1174_
*1210 _1175_
*1211 _1176_
*1212 _1177_
*1213 _1178_
*1214 _1179_
*1215 _1180_
*1216 _1181_
*1217 _1182_
*1218 _1183_
*1219 _1184_
*1220 _1185_
*1221 _1186_
*1222 _1187_
*1223 _1188_
*1224 _1189_
*1225 _1190_
*1226 _1191_
*1227 _1192_
*1228 _1193_
*1229 _1194_
*1230 _1195_
*1231 _1196_
*1232 _1197_
*1233 _1198_
*1234 _1199_
*1235 _1200_
*1236 _1201_
*1237 _1202_
*1238 _1203_
*1239 _1204_
*1240 _1205_
*1241 _1206_
*1242 _1207_
*1243 _1208_
*1244 _1209_
*1245 _1210_
*1246 _1211_
*1247 _1212_
*1248 _1213_
*1249 _1214_
*1250 _1215_
*1251 _1216_
*1252 _1217_
*1253 _1218_
*1254 _1219_
*1255 _1220_
*1256 _1221_
*1257 _1222_
*1258 _1223_
*1259 _1224_
*1260 _1225_
*1261 _1226_
*1262 _1227_
*1263 _1228_
*1264 _1229_
*1265 _1230_
*1266 _1231_
*1267 _1232_
*1268 _1233_
*1269 _1234_
*1270 _1235_
*1271 _1236_
*1272 _1237_
*1273 _1238_
*1274 _1239_
*1275 _1240_
*1276 _1241_
*1277 _1242_
*1278 _1243_
*1279 _1244_
*1280 _1245_
*1281 _1246_
*1282 _1247_
*1283 _1248_
*1284 _1249_
*1285 _1250_
*1286 _1251_
*1287 _1252_
*1288 _1253_
*1289 _1254_
*1290 _1255_
*1291 _1256_
*1292 _1257_
*1293 _1258_
*1294 _1259_
*1295 _1260_
*1296 _1261_
*1297 _1262_
*1298 _1263_
*1299 _1264_
*1300 _1265_
*1301 _1266_
*1302 _1267_
*1303 _1268_
*1304 _1269_
*1305 _1270_
*1306 _1271_
*1307 _1272_
*1308 _1273_
*1309 _1274_
*1310 _1275_
*1311 _1276_
*1312 _1277_
*1313 _1278_
*1314 _1279_
*1315 _1280_
*1316 _1281_
*1317 _1282_
*1318 _1283_
*1319 _1284_
*1320 _1285_
*1321 _1286_
*1322 _1287_
*1323 _1288_
*1324 _1289_
*1325 _1290_
*1326 _1291_
*1327 _1292_
*1328 _1293_
*1329 _1294_
*1330 _1295_
*1331 _1296_
*1332 _1297_
*1333 _1298_
*1334 _1299_
*1335 _1300_
*1336 _1301_
*1337 _1302_
*1338 _1303_
*1339 _1304_
*1340 _1305_
*1341 _1306_
*1342 _1307_
*1343 _1308_
*1344 _1309_
*1345 _1310_
*1346 _1311_
*1347 _1312_
*1348 _1313_
*1349 _1314_
*1350 _1315_
*1351 _1316_
*1352 _1317_
*1353 _1318_
*1354 _1319_
*1355 _1320_
*1356 _1321_
*1357 _1322_
*1358 _1323_
*1359 _1324_
*1360 _1325_
*1361 _1326_
*1362 _1327_
*1363 _1328_
*1364 _1329_
*1365 _1330_
*1366 _1331_
*1367 _1332_
*1368 _1333_
*1369 _1334_
*1370 _1335_
*1371 _1336_
*1372 _1337_
*1373 _1338_
*1374 _1339_
*1375 _1340_
*1376 _1341_
*1377 _1342_
*1378 _1343_
*1379 _1344_
*1380 _1345_
*1381 _1346_
*1382 _1347_
*1383 _1348_
*1384 _1349_
*1385 _1350_
*1386 _1351_
*1387 _1352_
*1388 _1353_
*1389 _1354_
*1390 _1355_
*1391 _1356_
*1392 _1357_
*1393 _1358_
*1394 _1359_
*1395 _1360_
*1396 _1361_
*1397 _1362_
*1398 _1363_
*1399 _1364_
*1400 _1365_
*1401 _1366_
*1402 _1367_
*1403 _1368_
*1404 _1369_
*1405 _1370_
*1406 _1371_
*1407 _1372_
*1408 _1373_
*1409 _1374_
*1410 _1375_
*1411 _1376_
*1412 _1377_
*1413 _1378_
*1414 _1379_
*1415 _1380_
*1416 _1381_
*1417 _1382_
*1418 _1383_
*1419 _1384_
*1420 _1385_
*1421 _1386_
*1422 _1387_
*1423 _1388_
*1424 _1389_
*1425 _1390_
*1426 _1391_
*1427 _1392_
*1428 _1393_
*1429 _1394_
*1430 _1395_
*1431 _1396_
*1432 _1397_
*1433 _1398_
*1434 _1399_
*1435 _1400_
*1436 _1401_
*1437 _1402_
*1438 _1403_
*1439 _1404_
*1440 _1405_
*1441 _1406_
*1442 _1407_
*1443 _1408_
*1444 _1409_
*1445 _1410_
*1446 _1411_
*1447 _1412_
*1448 _1413_
*1449 _1414_
*1450 _1415_
*1451 _1416_
*1452 _1417_
*1453 _1418_
*1454 _1419_
*1455 _1420_
*1456 _1421_
*1457 _1422_
*1458 _1423_
*1459 _1424_
*1460 _1425_
*1461 _1426_
*1462 _1427_
*1463 _1428_
*1464 _1429_
*1465 _1430_
*1466 _1431_
*1467 _1432_
*1468 _1433_
*1469 _1434_
*1470 _1435_
*1471 _1436_
*1472 _1437_
*1473 _1438_
*1474 _1439_
*1475 _1440_
*1476 _1441_
*1477 _1442_
*1478 _1443_
*1479 _1444_
*1480 _1445_
*1481 _1446_
*1482 _1447_
*1483 _1448_
*1484 _1449_
*1485 _1450_
*1486 _1451_
*1487 _1452_
*1488 _1453_
*1489 _1454_
*1490 _1455_
*1491 _1456_
*1492 _1457_
*1493 _1458_
*1494 _1459_
*1495 _1460_
*1496 _1461_
*1497 _1462_
*1498 _1463_
*1499 _1464_
*1500 _1465_
*1501 _1466_
*1502 _1467_
*1503 _1468_
*1504 _1469_
*1505 _1470_
*1506 _1471_
*1507 _1472_
*1508 _1473_
*1509 _1474_
*1510 _1475_
*1511 _1476_
*1512 _1477_
*1513 _1478_
*1514 _1479_
*1515 _1480_
*1516 _1481_
*1517 _1482_
*1518 _1483_
*1519 _1484_
*1520 _1485_
*1521 _1486_
*1522 _1487_
*1523 _1488_
*1524 _1489_
*1525 _1490_
*1526 _1491_
*1527 _1492_
*1528 _1493_
*1529 _1494_
*1530 _1495_
*1531 _1496_
*1532 _1497_
*1533 _1498_
*1534 _1499_
*1535 _1500_
*1536 _1501_
*1537 _1502_
*1538 _1503_
*1539 _1504_
*1540 _1505_
*1541 _1506_
*1542 _1507_
*1543 _1508_
*1544 _1509_
*1545 _1510_
*1546 _1511_
*1547 _1512_
*1548 _1513_
*1549 _1514_
*1550 _1515_
*1551 _1516_
*1552 _1517_
*1553 _1518_
*1554 _1519_
*1555 _1520_
*1556 _1521_
*1557 _1522_
*1558 _1523_
*1559 _1524_
*1560 _1525_
*1561 _1526_
*1562 _1527_
*1563 _1528_
*1564 _1529_
*1565 _1530_
*1566 _1531_
*1567 _1532_
*1568 _1533_
*1569 _1534_
*1570 _1535_
*1571 _1536_
*1572 _1537_
*1573 _1538_
*1574 _1539_
*1575 _1540_
*1576 _1541_
*1577 _1542_
*1578 _1543_
*1579 _1544_
*1580 _1545_
*1581 _1546_
*1582 _1547_
*1583 _1548_
*1584 _1549_
*1585 _1550_
*1586 _1551_
*1587 _1552_
*1588 _1553_
*1589 _1554_
*1590 _1555_
*1591 _1556_
*1592 _1557_
*1593 _1558_
*1594 _1559_
*1595 _1560_
*1596 _1561_
*1597 _1562_
*1598 _1563_
*1599 _1564_
*1600 _1565_
*1601 _1566_
*1602 _1567_
*1603 _1568_
*1604 _1569_
*1605 _1570_
*1606 _1571_
*1607 _1572_
*1608 _1573_
*1609 _1574_
*1610 _1575_
*1611 _1576_
*1612 _1577_
*1613 _1578_
*1614 _1579_
*1615 _1580_
*1616 _1581_
*1617 _1582_
*1618 _1583_
*1619 _1584_
*1620 _1585_
*1621 _1586_
*1622 _1587_
*1623 _1588_
*1624 _1589_
*1625 _1590_
*1626 _1591_
*1627 _1592_
*1628 _1593_
*1629 _1594_
*1630 _1595_
*1631 _1596_
*1632 _1597_
*1633 _1598_
*1634 _1599_
*1635 _1600_
*1636 _1601_
*1637 _1602_
*1638 _1603_
*1639 _1604_
*1640 _1605_
*1641 _1606_
*1642 _1607_
*1643 _1608_
*1644 _1609_
*1645 _1610_
*1646 _1611_
*1647 _1612_
*1648 _1613_
*1649 _1614_
*1650 _1615_
*1651 _1616_
*1652 _1617_
*1653 _1618_
*1654 _1619_
*1655 _1620_
*1656 _1621_
*1657 _1622_
*1658 _1623_
*1659 _1624_
*1660 _1625_
*1661 _1626_
*1662 _1627_
*1663 _1628_
*1664 _1629_
*1665 _1630_
*1666 _1631_
*1667 _1632_
*1668 _1633_
*1669 clknet_0_clk
*1670 clknet_3_0__leaf_clk
*1671 clknet_3_1__leaf_clk
*1672 clknet_3_2__leaf_clk
*1673 clknet_3_3__leaf_clk
*1674 clknet_3_4__leaf_clk
*1675 clknet_3_5__leaf_clk
*1676 clknet_3_6__leaf_clk
*1677 clknet_3_7__leaf_clk
*1678 clknet_leaf_0_clk
*1679 clknet_leaf_100_clk
*1680 clknet_leaf_101_clk
*1681 clknet_leaf_102_clk
*1682 clknet_leaf_103_clk
*1683 clknet_leaf_104_clk
*1684 clknet_leaf_105_clk
*1685 clknet_leaf_10_clk
*1686 clknet_leaf_11_clk
*1687 clknet_leaf_12_clk
*1688 clknet_leaf_13_clk
*1689 clknet_leaf_14_clk
*1690 clknet_leaf_15_clk
*1691 clknet_leaf_16_clk
*1692 clknet_leaf_17_clk
*1693 clknet_leaf_18_clk
*1694 clknet_leaf_19_clk
*1695 clknet_leaf_1_clk
*1696 clknet_leaf_20_clk
*1697 clknet_leaf_21_clk
*1698 clknet_leaf_22_clk
*1699 clknet_leaf_23_clk
*1700 clknet_leaf_24_clk
*1701 clknet_leaf_25_clk
*1702 clknet_leaf_26_clk
*1703 clknet_leaf_27_clk
*1704 clknet_leaf_28_clk
*1705 clknet_leaf_29_clk
*1706 clknet_leaf_2_clk
*1707 clknet_leaf_30_clk
*1708 clknet_leaf_31_clk
*1709 clknet_leaf_32_clk
*1710 clknet_leaf_33_clk
*1711 clknet_leaf_34_clk
*1712 clknet_leaf_35_clk
*1713 clknet_leaf_36_clk
*1714 clknet_leaf_37_clk
*1715 clknet_leaf_38_clk
*1716 clknet_leaf_39_clk
*1717 clknet_leaf_3_clk
*1718 clknet_leaf_40_clk
*1719 clknet_leaf_41_clk
*1720 clknet_leaf_42_clk
*1721 clknet_leaf_43_clk
*1722 clknet_leaf_44_clk
*1723 clknet_leaf_45_clk
*1724 clknet_leaf_46_clk
*1725 clknet_leaf_47_clk
*1726 clknet_leaf_48_clk
*1727 clknet_leaf_49_clk
*1728 clknet_leaf_4_clk
*1729 clknet_leaf_50_clk
*1730 clknet_leaf_51_clk
*1731 clknet_leaf_52_clk
*1732 clknet_leaf_53_clk
*1733 clknet_leaf_54_clk
*1734 clknet_leaf_55_clk
*1735 clknet_leaf_56_clk
*1736 clknet_leaf_57_clk
*1737 clknet_leaf_58_clk
*1738 clknet_leaf_59_clk
*1739 clknet_leaf_5_clk
*1740 clknet_leaf_60_clk
*1741 clknet_leaf_61_clk
*1742 clknet_leaf_62_clk
*1743 clknet_leaf_63_clk
*1744 clknet_leaf_64_clk
*1745 clknet_leaf_65_clk
*1746 clknet_leaf_66_clk
*1747 clknet_leaf_67_clk
*1748 clknet_leaf_68_clk
*1749 clknet_leaf_69_clk
*1750 clknet_leaf_6_clk
*1751 clknet_leaf_70_clk
*1752 clknet_leaf_71_clk
*1753 clknet_leaf_72_clk
*1754 clknet_leaf_73_clk
*1755 clknet_leaf_74_clk
*1756 clknet_leaf_75_clk
*1757 clknet_leaf_76_clk
*1758 clknet_leaf_77_clk
*1759 clknet_leaf_78_clk
*1760 clknet_leaf_79_clk
*1761 clknet_leaf_7_clk
*1762 clknet_leaf_80_clk
*1763 clknet_leaf_81_clk
*1764 clknet_leaf_82_clk
*1765 clknet_leaf_83_clk
*1766 clknet_leaf_84_clk
*1767 clknet_leaf_85_clk
*1768 clknet_leaf_86_clk
*1769 clknet_leaf_87_clk
*1770 clknet_leaf_88_clk
*1771 clknet_leaf_89_clk
*1772 clknet_leaf_8_clk
*1773 clknet_leaf_90_clk
*1774 clknet_leaf_91_clk
*1775 clknet_leaf_92_clk
*1776 clknet_leaf_93_clk
*1777 clknet_leaf_94_clk
*1778 clknet_leaf_95_clk
*1779 clknet_leaf_96_clk
*1780 clknet_leaf_97_clk
*1781 clknet_leaf_98_clk
*1782 clknet_leaf_99_clk
*1783 clknet_leaf_9_clk
*1784 hotp\.block\.debug\[0\]
*1785 hotp\.block\.debug\[1\]
*1786 hotp\.block\.magic\.step\[0\]
*1787 hotp\.block\.magic\.step\[1\]
*1788 hotp\.block\.magic\.step\[2\]
*1789 hotp\.block\.magic\.step\[3\]
*1790 hotp\.block\.magic\.step\[4\]
*1791 hotp\.block\.main_in
*1792 hotp\.block\.mixer\.msg\[0\]
*1793 hotp\.block\.mixer\.msg\[100\]
*1794 hotp\.block\.mixer\.msg\[101\]
*1795 hotp\.block\.mixer\.msg\[102\]
*1796 hotp\.block\.mixer\.msg\[103\]
*1797 hotp\.block\.mixer\.msg\[104\]
*1798 hotp\.block\.mixer\.msg\[105\]
*1799 hotp\.block\.mixer\.msg\[106\]
*1800 hotp\.block\.mixer\.msg\[107\]
*1801 hotp\.block\.mixer\.msg\[108\]
*1802 hotp\.block\.mixer\.msg\[109\]
*1803 hotp\.block\.mixer\.msg\[10\]
*1804 hotp\.block\.mixer\.msg\[110\]
*1805 hotp\.block\.mixer\.msg\[111\]
*1806 hotp\.block\.mixer\.msg\[112\]
*1807 hotp\.block\.mixer\.msg\[113\]
*1808 hotp\.block\.mixer\.msg\[114\]
*1809 hotp\.block\.mixer\.msg\[115\]
*1810 hotp\.block\.mixer\.msg\[116\]
*1811 hotp\.block\.mixer\.msg\[117\]
*1812 hotp\.block\.mixer\.msg\[118\]
*1813 hotp\.block\.mixer\.msg\[119\]
*1814 hotp\.block\.mixer\.msg\[11\]
*1815 hotp\.block\.mixer\.msg\[120\]
*1816 hotp\.block\.mixer\.msg\[121\]
*1817 hotp\.block\.mixer\.msg\[122\]
*1818 hotp\.block\.mixer\.msg\[123\]
*1819 hotp\.block\.mixer\.msg\[124\]
*1820 hotp\.block\.mixer\.msg\[125\]
*1821 hotp\.block\.mixer\.msg\[126\]
*1822 hotp\.block\.mixer\.msg\[127\]
*1823 hotp\.block\.mixer\.msg\[128\]
*1824 hotp\.block\.mixer\.msg\[129\]
*1825 hotp\.block\.mixer\.msg\[12\]
*1826 hotp\.block\.mixer\.msg\[130\]
*1827 hotp\.block\.mixer\.msg\[131\]
*1828 hotp\.block\.mixer\.msg\[132\]
*1829 hotp\.block\.mixer\.msg\[133\]
*1830 hotp\.block\.mixer\.msg\[134\]
*1831 hotp\.block\.mixer\.msg\[135\]
*1832 hotp\.block\.mixer\.msg\[136\]
*1833 hotp\.block\.mixer\.msg\[137\]
*1834 hotp\.block\.mixer\.msg\[138\]
*1835 hotp\.block\.mixer\.msg\[139\]
*1836 hotp\.block\.mixer\.msg\[13\]
*1837 hotp\.block\.mixer\.msg\[140\]
*1838 hotp\.block\.mixer\.msg\[141\]
*1839 hotp\.block\.mixer\.msg\[142\]
*1840 hotp\.block\.mixer\.msg\[143\]
*1841 hotp\.block\.mixer\.msg\[144\]
*1842 hotp\.block\.mixer\.msg\[145\]
*1843 hotp\.block\.mixer\.msg\[146\]
*1844 hotp\.block\.mixer\.msg\[147\]
*1845 hotp\.block\.mixer\.msg\[148\]
*1846 hotp\.block\.mixer\.msg\[149\]
*1847 hotp\.block\.mixer\.msg\[14\]
*1848 hotp\.block\.mixer\.msg\[150\]
*1849 hotp\.block\.mixer\.msg\[151\]
*1850 hotp\.block\.mixer\.msg\[152\]
*1851 hotp\.block\.mixer\.msg\[153\]
*1852 hotp\.block\.mixer\.msg\[154\]
*1853 hotp\.block\.mixer\.msg\[155\]
*1854 hotp\.block\.mixer\.msg\[156\]
*1855 hotp\.block\.mixer\.msg\[157\]
*1856 hotp\.block\.mixer\.msg\[158\]
*1857 hotp\.block\.mixer\.msg\[159\]
*1858 hotp\.block\.mixer\.msg\[15\]
*1859 hotp\.block\.mixer\.msg\[16\]
*1860 hotp\.block\.mixer\.msg\[17\]
*1861 hotp\.block\.mixer\.msg\[18\]
*1862 hotp\.block\.mixer\.msg\[19\]
*1863 hotp\.block\.mixer\.msg\[1\]
*1864 hotp\.block\.mixer\.msg\[20\]
*1865 hotp\.block\.mixer\.msg\[21\]
*1866 hotp\.block\.mixer\.msg\[22\]
*1867 hotp\.block\.mixer\.msg\[23\]
*1868 hotp\.block\.mixer\.msg\[24\]
*1869 hotp\.block\.mixer\.msg\[25\]
*1870 hotp\.block\.mixer\.msg\[26\]
*1871 hotp\.block\.mixer\.msg\[27\]
*1872 hotp\.block\.mixer\.msg\[28\]
*1873 hotp\.block\.mixer\.msg\[29\]
*1874 hotp\.block\.mixer\.msg\[2\]
*1875 hotp\.block\.mixer\.msg\[30\]
*1876 hotp\.block\.mixer\.msg\[31\]
*1877 hotp\.block\.mixer\.msg\[32\]
*1878 hotp\.block\.mixer\.msg\[33\]
*1879 hotp\.block\.mixer\.msg\[34\]
*1880 hotp\.block\.mixer\.msg\[35\]
*1881 hotp\.block\.mixer\.msg\[36\]
*1882 hotp\.block\.mixer\.msg\[37\]
*1883 hotp\.block\.mixer\.msg\[38\]
*1884 hotp\.block\.mixer\.msg\[39\]
*1885 hotp\.block\.mixer\.msg\[3\]
*1886 hotp\.block\.mixer\.msg\[40\]
*1887 hotp\.block\.mixer\.msg\[41\]
*1888 hotp\.block\.mixer\.msg\[42\]
*1889 hotp\.block\.mixer\.msg\[43\]
*1890 hotp\.block\.mixer\.msg\[44\]
*1891 hotp\.block\.mixer\.msg\[45\]
*1892 hotp\.block\.mixer\.msg\[46\]
*1893 hotp\.block\.mixer\.msg\[47\]
*1894 hotp\.block\.mixer\.msg\[48\]
*1895 hotp\.block\.mixer\.msg\[49\]
*1896 hotp\.block\.mixer\.msg\[4\]
*1897 hotp\.block\.mixer\.msg\[50\]
*1898 hotp\.block\.mixer\.msg\[51\]
*1899 hotp\.block\.mixer\.msg\[52\]
*1900 hotp\.block\.mixer\.msg\[53\]
*1901 hotp\.block\.mixer\.msg\[54\]
*1902 hotp\.block\.mixer\.msg\[55\]
*1903 hotp\.block\.mixer\.msg\[56\]
*1904 hotp\.block\.mixer\.msg\[57\]
*1905 hotp\.block\.mixer\.msg\[58\]
*1906 hotp\.block\.mixer\.msg\[59\]
*1907 hotp\.block\.mixer\.msg\[5\]
*1908 hotp\.block\.mixer\.msg\[60\]
*1909 hotp\.block\.mixer\.msg\[61\]
*1910 hotp\.block\.mixer\.msg\[62\]
*1911 hotp\.block\.mixer\.msg\[63\]
*1912 hotp\.block\.mixer\.msg\[64\]
*1913 hotp\.block\.mixer\.msg\[65\]
*1914 hotp\.block\.mixer\.msg\[66\]
*1915 hotp\.block\.mixer\.msg\[67\]
*1916 hotp\.block\.mixer\.msg\[68\]
*1917 hotp\.block\.mixer\.msg\[69\]
*1918 hotp\.block\.mixer\.msg\[6\]
*1919 hotp\.block\.mixer\.msg\[70\]
*1920 hotp\.block\.mixer\.msg\[71\]
*1921 hotp\.block\.mixer\.msg\[72\]
*1922 hotp\.block\.mixer\.msg\[73\]
*1923 hotp\.block\.mixer\.msg\[74\]
*1924 hotp\.block\.mixer\.msg\[75\]
*1925 hotp\.block\.mixer\.msg\[76\]
*1926 hotp\.block\.mixer\.msg\[77\]
*1927 hotp\.block\.mixer\.msg\[78\]
*1928 hotp\.block\.mixer\.msg\[79\]
*1929 hotp\.block\.mixer\.msg\[7\]
*1930 hotp\.block\.mixer\.msg\[80\]
*1931 hotp\.block\.mixer\.msg\[81\]
*1932 hotp\.block\.mixer\.msg\[82\]
*1933 hotp\.block\.mixer\.msg\[83\]
*1934 hotp\.block\.mixer\.msg\[84\]
*1935 hotp\.block\.mixer\.msg\[85\]
*1936 hotp\.block\.mixer\.msg\[86\]
*1937 hotp\.block\.mixer\.msg\[87\]
*1938 hotp\.block\.mixer\.msg\[88\]
*1939 hotp\.block\.mixer\.msg\[89\]
*1940 hotp\.block\.mixer\.msg\[8\]
*1941 hotp\.block\.mixer\.msg\[90\]
*1942 hotp\.block\.mixer\.msg\[91\]
*1943 hotp\.block\.mixer\.msg\[92\]
*1944 hotp\.block\.mixer\.msg\[93\]
*1945 hotp\.block\.mixer\.msg\[94\]
*1946 hotp\.block\.mixer\.msg\[95\]
*1947 hotp\.block\.mixer\.msg\[96\]
*1948 hotp\.block\.mixer\.msg\[97\]
*1949 hotp\.block\.mixer\.msg\[98\]
*1950 hotp\.block\.mixer\.msg\[99\]
*1951 hotp\.block\.mixer\.msg\[9\]
*1952 hotp\.block\.mixer\.round\[0\]
*1953 hotp\.block\.mixer\.round\[1\]
*1954 hotp\.block\.mixer\.round\[2\]
*1955 hotp\.block\.mixer\.round\[3\]
*1956 hotp\.block\.mixer\.round\[4\]