*SPEF "ieee 1481-1999"
*DESIGN "unigate"
*DATE "11:11:11 Fri 11 11, 1111"
*VENDOR "OpenRCX"
*PROGRAM "Parallel Extraction"
*VERSION "1.0"
*DESIGN_FLOW "NAME_SCOPE LOCAL" "PIN_CAP NONE"
*DIVIDER /
*DELIMITER :
*BUS_DELIMITER []
*T_UNIT 1 NS
*C_UNIT 1 PF
*R_UNIT 1 OHM
*L_UNIT 1 HENRY

*NAME_MAP
*1 clk
*2 in[0]
*3 in[10]
*4 in[11]
*5 in[12]
*6 in[13]
*7 in[14]
*8 in[15]
*9 in[16]
*10 in[17]
*11 in[18]
*12 in[1]
*13 in[2]
*14 in[3]
*15 in[4]
*16 in[5]
*17 in[6]
*18 in[7]
*19 in[8]
*20 in[9]
*21 out[0]
*22 out[10]
*23 out[11]
*24 out[1]
*25 out[2]
*26 out[3]
*27 out[4]
*28 out[5]
*29 out[6]
*30 out[7]
*31 out[8]
*32 out[9]
*33 rst_n
*36 _0000_
*37 _0001_
*38 _0002_
*39 _0003_
*40 _0004_
*41 _0005_
*42 _0006_
*43 _0007_
*44 _0008_
*45 _0009_
*46 _0010_
*47 _0011_
*48 _0012_
*49 _0013_
*50 _0014_
*51 _0015_
*52 _0016_
*53 _0017_
*54 _0018_
*55 _0019_
*56 _0020_
*57 _0021_
*58 _0022_
*59 _0023_
*60 _0024_
*61 _0025_
*62 _0026_
*63 _0027_
*64 _0028_
*65 _0029_
*66 _0030_
*67 _0031_
*68 _0032_
*69 _0033_
*70 _0034_
*71 _0035_
*72 _0036_
*73 _0037_
*74 _0038_
*75 _0039_
*76 _0040_
*77 _0041_
*78 _0042_
*79 _0043_
*80 _0044_
*81 _0045_
*82 _0046_
*83 _0047_
*84 _0048_
*85 _0049_
*86 _0050_
*87 _0051_
*88 _0052_
*89 _0053_
*90 _0054_
*91 _0055_
*92 _0056_
*93 _0057_
*94 _0058_
*95 _0059_
*96 _0060_
*97 _0061_
*98 _0062_
*99 _0063_
*100 _0064_
*101 _0065_
*102 _0066_
*103 _0067_
*104 _0068_
*105 _0069_
*106 _0070_
*107 _0071_
*108 _0072_
*109 _0073_
*110 _0074_
*111 _0075_
*112 _0076_
*113 _0077_
*114 _0078_
*115 _0079_
*116 _0080_
*117 _0081_
*118 _0082_
*119 _0083_
*120 _0084_
*121 _0085_
*122 _0086_
*123 _0087_
*124 _0088_
*125 _0089_
*126 _0090_
*127 _0091_
*128 _0092_
*129 _0093_
*130 _0094_
*131 _0095_
*132 _0096_
*133 _0097_
*134 _0098_
*135 _0099_
*136 _0100_
*137 _0101_
*138 _0102_
*139 _0103_
*140 _0104_
*141 _0105_
*142 _0106_
*143 _0107_
*144 _0108_
*145 _0109_
*146 _0110_
*147 _0111_
*148 _0112_
*149 _0113_
*150 _0114_
*151 _0115_
*152 _0116_
*153 _0117_
*154 _0118_
*155 _0119_
*156 _0120_
*157 _0121_
*158 _0122_
*159 _0123_
*160 _0124_
*161 _0125_
*162 _0126_
*163 _0127_
*164 _0128_
*165 _0129_
*166 _0130_
*167 _0131_
*168 _0132_
*169 _0133_
*170 _0134_
*171 _0135_
*172 _0136_
*173 _0137_
*174 _0138_
*175 _0139_
*176 _0140_
*177 _0141_
*178 _0142_
*179 _0143_
*180 _0144_
*181 _0145_
*182 _0146_
*183 _0147_
*184 _0148_
*185 _0149_
*186 _0150_
*187 _0151_
*188 _0152_
*189 _0153_
*190 _0154_
*191 _0155_
*192 _0156_
*193 _0157_
*194 _0158_
*195 _0159_
*196 _0160_
*197 _0161_
*198 _0162_
*199 _0163_
*200 _0164_
*201 _0165_
*202 _0166_
*203 _0167_
*204 _0168_
*205 _0169_
*206 _0170_
*207 _0171_
*208 _0172_
*209 _0173_
*210 _0174_
*211 _0175_
*212 _0176_
*213 _0177_
*214 _0178_
*215 _0179_
*216 _0180_
*217 _0181_
*218 _0182_
*219 _0183_
*220 _0184_
*221 _0185_
*222 _0186_
*223 _0187_
*224 _0188_
*225 _0189_
*226 _0190_
*227 _0191_
*228 _0192_
*229 _0193_
*230 _0194_
*231 _0195_
*232 _0196_
*233 _0197_
*234 _0198_
*235 _0199_
*236 _0200_
*237 _0201_
*238 _0202_
*239 _0203_
*240 _0204_
*241 _0205_
*242 _0206_
*243 _0207_
*244 _0208_
*245 _0209_
*246 _0210_
*247 _0211_
*248 _0212_
*249 _0213_
*250 _0214_
*251 _0215_
*252 _0216_
*253 _0217_
*254 _0218_
*255 _0219_
*256 _0220_
*257 _0221_
*258 _0222_
*259 _0223_
*260 _0224_
*261 _0225_
*262 _0226_
*263 _0227_
*264 _0228_
*265 _0229_
*266 _0230_
*267 _0231_
*268 _0232_
*269 _0233_
*270 _0234_
*271 _0235_
*272 _0236_
*273 _0237_
*274 _0238_
*275 _0239_
*276 _0240_
*277 _0241_
*278 _0242_
*279 _0243_
*280 _0244_
*281 _0245_
*282 _0246_
*283 _0247_
*284 _0248_
*285 _0249_
*286 _0250_
*287 _0251_
*288 _0252_
*289 _0253_
*290 _0254_
*291 _0255_
*292 _0256_
*293 _0257_
*294 _0258_
*295 _0259_
*296 _0260_
*297 _0261_
*298 _0262_
*299 _0263_
*300 _0264_
*301 _0265_
*302 _0266_
*303 _0267_
*304 _0268_
*305 _0269_
*306 _0270_
*307 _0271_
*308 _0272_
*309 _0273_
*310 _0274_
*311 _0275_
*312 _0276_
*313 _0277_
*314 _0278_
*315 _0279_
*316 _0280_
*317 _0281_
*318 _0282_
*319 _0283_
*320 _0284_
*321 _0285_
*322 _0286_
*323 _0287_
*324 _0288_
*325 _0289_
*326 _0290_
*327 _0291_
*328 _0292_
*329 _0293_
*330 _0294_
*331 _0295_
*332 _0296_
*333 _0297_
*334 _0298_
*335 _0299_
*336 _0300_
*337 _0301_
*338 _0302_
*339 _0303_
*340 _0304_
*341 _0305_
*342 _0306_
*343 _0307_
*344 _0308_
*345 _0309_
*346 _0310_
*347 _0311_
*348 _0312_
*349 _0313_
*350 _0314_
*351 _0315_
*352 _0316_
*353 _0317_
*354 _0318_
*355 _0319_
*356 _0320_
*357 _0321_
*358 _0322_
*359 _0323_
*360 _0324_
*361 _0325_
*362 _0326_
*363 _0327_
*364 _0328_
*365 _0329_
*366 _0330_
*367 _0331_
*368 _0332_
*369 _0333_
*370 _0334_
*371 _0335_
*372 _0336_
*373 _0337_
*374 _0338_
*375 _0339_
*376 _0340_
*377 _0341_
*378 _0342_
*379 _0343_
*380 _0344_
*381 _0345_
*382 _0346_
*383 _0347_
*384 _0348_
*385 _0349_
*386 _0350_
*387 _0351_
*388 _0352_
*389 _0353_
*390 _0354_
*391 _0355_
*392 _0356_
*393 _0357_
*394 _0358_
*395 _0359_
*396 _0360_
*397 _0361_
*398 _0362_
*399 _0363_
*400 _0364_
*401 _0365_
*402 _0366_
*403 _0367_
*404 _0368_
*405 _0369_
*406 _0370_
*407 _0371_
*408 _0372_
*409 _0373_
*410 _0374_
*411 _0375_
*412 _0376_
*413 _0377_
*414 _0378_
*415 _0379_
*416 _0380_
*417 _0381_
*418 _0382_
*419 _0383_
*420 _0384_
*421 _0385_
*422 _0386_
*423 _0387_
*424 _0388_
*425 _0389_
*426 _0390_
*427 _0391_
*428 _0392_
*429 _0393_
*430 _0394_
*431 _0395_
*432 _0396_
*433 _0397_
*434 _0398_
*435 _0399_
*436 _0400_
*437 _0401_
*438 _0402_
*439 _0403_
*440 _0404_
*441 _0405_
*442 _0406_
*443 _0407_
*444 _0408_
*445 _0409_
*446 _0410_
*447 _0411_
*448 _0412_
*449 _0413_
*450 _0414_
*451 _0415_
*452 _0416_
*453 _0417_
*454 _0418_
*455 _0419_
*456 _0420_
*457 _0421_
*458 _0422_
*459 _0423_
*460 _0424_
*461 _0425_
*462 _0426_
*463 _0427_
*464 _0428_
*465 _0429_
*466 _0430_
*467 _0431_
*468 _0432_
*469 _0433_
*470 _0434_
*471 _0435_
*472 _0436_
*473 _0437_
*474 _0438_
*475 _0439_
*476 _0440_
*477 _0441_
*478 _0442_
*479 _0443_
*480 _0444_
*481 _0445_
*482 _0446_
*483 _0447_
*484 _0448_
*485 _0449_
*486 _0450_
*487 _0451_
*488 _0452_
*489 _0453_
*490 _0454_
*491 _0455_
*492 _0456_
*493 _0457_
*494 _0458_
*495 _0459_
*496 _0460_
*497 _0461_
*498 _0462_
*499 _0463_
*500 _0464_
*501 _0465_
*502 _0466_
*503 _0467_
*504 _0468_
*505 _0469_
*506 _0470_
*507 _0471_
*508 _0472_
*509 _0473_
*510 _0474_
*511 _0475_
*512 _0476_
*513 _0477_
*514 _0478_
*515 _0479_
*516 _0480_
*517 _0481_
*518 _0482_
*519 _0483_
*520 _0484_
*521 _0485_
*522 _0486_
*523 _0487_
*524 _0488_
*525 _0489_
*526 _0490_
*527 _0491_
*528 _0492_
*529 _0493_
*530 _0494_
*531 _0495_
*532 _0496_
*533 _0497_
*534 _0498_
*535 _0499_
*536 _0500_
*537 _0501_
*538 _0502_
*539 _0503_
*540 _0504_
*541 _0505_
*542 _0506_
*543 _0507_
*544 _0508_
*545 _0509_
*546 _0510_
*547 _0511_
*548 _0512_
*549 _0513_
*550 _0514_
*551 _0515_
*552 _0516_
*553 _0517_
*554 _0518_
*555 _0519_
*556 _0520_
*557 _0521_
*558 _0522_
*559 _0523_
*560 _0524_
*561 _0525_
*562 _0526_
*563 _0527_
*564 _0528_
*565 _0529_
*566 _0530_
*567 _0531_
*568 _0532_
*569 _0533_
*570 _0534_
*571 _0535_
*572 _0536_
*573 _0537_
*574 _0538_
*575 _0539_
*576 _0540_
*577 _0541_
*578 _0542_
*579 _0543_
*580 _0544_
*581 _0545_
*582 _0546_
*583 _0547_
*584 _0548_
*585 _0549_
*586 _0550_
*587 _0551_
*588 _0552_
*589 _0553_
*590 _0554_
*591 _0555_
*592 _0556_
*593 _0557_
*594 _0558_
*595 _0559_
*596 _0560_
*597 _0561_
*598 _0562_
*599 _0563_
*600 _0564_
*601 _0565_
*602 _0566_
*603 _0567_
*604 _0568_
*605 _0569_
*606 _0570_
*607 _0571_
*608 _0572_
*609 _0573_
*610 _0574_
*611 _0575_
*612 _0576_
*613 _0577_
*614 _0578_
*615 _0579_
*616 _0580_
*617 _0581_
*618 _0582_
*619 _0583_
*620 _0584_
*621 _0585_
*622 _0586_
*623 _0587_
*624 _0588_
*625 _0589_
*626 _0590_
*627 _0591_
*628 _0592_
*629 _0593_
*630 _0594_
*631 _0595_
*632 _0596_
*633 _0597_
*634 _0598_
*635 _0599_
*636 _0600_
*637 _0601_
*638 _0602_
*639 _0603_
*640 _0604_
*641 _0605_
*642 _0606_
*643 _0607_
*644 _0608_
*645 _0609_
*646 _0610_
*647 _0611_
*648 _0612_
*649 _0613_
*650 _0614_
*651 _0615_
*652 _0616_
*653 _0617_
*654 _0618_
*655 _0619_
*656 _0620_
*657 _0621_
*658 _0622_
*659 _0623_
*660 _0624_
*661 _0625_
*662 _0626_
*663 _0627_
*664 _0628_
*665 _0629_
*666 _0630_
*667 _0631_
*668 _0632_
*669 _0633_
*670 _0634_
*671 _0635_
*672 _0636_
*673 _0637_
*674 _0638_
*675 _0639_
*676 _0640_
*677 _0641_
*678 _0642_
*679 _0643_
*680 _0644_
*681 _0645_
*682 _0646_
*683 _0647_
*684 _0648_
*685 _0649_
*686 _0650_
*687 _0651_
*688 _0652_
*689 _0653_
*690 _0654_
*691 _0655_
*692 _0656_
*693 _0657_
*694 _0658_
*695 _0659_
*696 _0660_
*697 _0661_
*698 _0662_
*699 _0663_
*700 _0664_
*701 _0665_
*702 _0666_
*703 _0667_
*704 _0668_
*705 _0669_
*706 _0670_
*707 _0671_
*708 _0672_
*709 _0673_
*710 _0674_
*711 _0675_
*712 _0676_
*713 _0677_
*714 _0678_
*715 _0679_
*716 _0680_
*717 _0681_
*718 _0682_
*719 _0683_
*720 _0684_
*721 _0685_
*722 _0686_
*723 _0687_
*724 _0688_
*725 _0689_
*726 _0690_
*727 _0691_
*728 _0692_
*729 _0693_
*730 _0694_
*731 _0695_
*732 _0696_
*733 _0697_
*734 _0698_
*735 _0699_
*736 _0700_
*737 _0701_
*738 _0702_
*739 _0703_
*740 _0704_
*741 _0705_
*742 _0706_
*743 _0707_
*744 _0708_
*745 _0709_
*746 _0710_
*747 _0711_
*748 _0712_
*749 _0713_
*750 _0714_
*751 _0715_
*752 _0716_
*753 _0717_
*754 _0718_
*755 _0719_
*756 _0720_
*757 _0721_
*758 _0722_
*759 _0723_
*760 _0724_
*761 _0725_
*762 _0726_
*763 _0727_
*764 _0728_
*765 _0729_
*766 _0730_
*767 _0731_
*768 _0732_
*769 _0733_
*770 _0734_
*771 _0735_
*772 _0736_
*773 _0737_
*774 _0738_
*775 _0739_
*776 _0740_
*777 _0741_
*778 _0742_
*779 _0743_
*780 _0744_
*781 _0745_
*782 _0746_
*783 _0747_
*784 _0748_
*785 _0749_
*786 _0750_
*787 _0751_
*788 _0752_
*789 _0753_
*790 _0754_
*791 _0755_
*792 _0756_
*793 _0757_
*794 _0758_
*795 _0759_
*796 _0760_
*797 _0761_
*798 _0762_
*799 _0763_
*800 _0764_
*801 _0765_
*802 _0766_
*803 _0767_
*804 _0768_
*805 _0769_
*806 _0770_
*807 _0771_
*808 _0772_
*809 _0773_
*810 _0774_
*811 _0775_
*812 _0776_
*813 _0777_
*814 _0778_
*815 _0779_
*816 _0780_
*817 _0781_
*818 _0782_
*819 _0783_
*820 _0784_
*821 _0785_
*822 _0786_
*823 _0787_
*824 _0788_
*825 _0789_
*826 _0790_
*827 _0791_
*828 _0792_
*829 _0793_
*830 _0794_
*831 _0795_
*832 _0796_
*833 _0797_
*834 _0798_
*835 _0799_
*836 _0800_
*837 _0801_
*838 _0802_
*839 _0803_
*840 _0804_
*841 _0805_
*842 _0806_
*843 _0807_
*844 _0808_
*845 _0809_
*846 _0810_
*847 _0811_
*848 _0812_
*849 _0813_
*850 _0814_
*851 _0815_
*852 _0816_
*853 _0817_
*854 _0818_
*855 _0819_
*856 _0820_
*857 _0821_
*858 _0822_
*859 _0823_
*860 _0824_
*861 _0825_
*862 _0826_
*863 _0827_
*864 _0828_
*865 _0829_
*866 _0830_
*867 _0831_
*868 _0832_
*869 _0833_
*870 _0834_
*871 _0835_
*872 _0836_
*873 _0837_
*874 _0838_
*875 _0839_
*876 _0840_
*877 _0841_
*878 _0842_
*879 _0843_
*880 _0844_
*881 _0845_
*882 _0846_
*883 _0847_
*884 _0848_
*885 _0849_
*886 _0850_
*887 _0851_
*888 _0852_
*889 _0853_
*890 _0854_
*891 _0855_
*892 _0856_
*893 _0857_
*894 _0858_
*895 _0859_
*896 _0860_
*897 _0861_
*898 _0862_
*899 _0863_
*900 _0864_
*901 _0865_
*902 _0866_
*903 _0867_
*904 _0868_
*905 _0869_
*906 _0870_
*907 _0871_
*908 _0872_
*909 _0873_
*910 _0874_
*911 _0875_
*912 _0876_
*913 _0877_
*914 _0878_
*915 _0879_
*916 _0880_
*917 _0881_
*918 _0882_
*919 _0883_
*920 _0884_
*921 _0885_
*922 _0886_
*923 _0887_
*924 _0888_
*925 _0889_
*926 _0890_
*927 _0891_
*928 _0892_
*929 _0893_
*930 _0894_
*931 _0895_
*932 _0896_
*933 _0897_
*934 _0898_
*935 _0899_
*936 _0900_
*937 _0901_
*938 _0902_
*939 _0903_
*940 _0904_
*941 _0905_
*942 _0906_
*943 _0907_
*944 _0908_
*945 _0909_
*946 _0910_
*947 _0911_
*948 _0912_
*949 _0913_
*950 _0914_
*951 _0915_
*952 _0916_
*953 _0917_
*954 _0918_
*955 _0919_
*956 _0920_
*957 _0921_
*958 _0922_
*959 _0923_
*960 _0924_
*961 _0925_
*962 _0926_
*963 _0927_
*964 _0928_
*965 _0929_
*966 _0930_
*967 _0931_
*968 _0932_
*969 _0933_
*970 _0934_
*971 _0935_
*972 _0936_
*973 _0937_
*974 _0938_
*975 _0939_
*976 _0940_
*977 _0941_
*978 _0942_
*979 _0943_
*980 _0944_
*981 _0945_
*982 _0946_
*983 _0947_
*984 _0948_
*985 _0949_
*986 _0950_
*987 _0951_
*988 _0952_
*989 _0953_
*990 _0954_
*991 _0955_
*992 _0956_
*993 _0957_
*994 _0958_
*995 _0959_
*996 _0960_
*997 _0961_
*998 _0962_
*999 _0963_
*1000 _0964_
*1001 _0965_
*1002 _0966_
*1003 _0967_
*1004 _0968_
*1005 _0969_
*1006 _0970_
*1007 _0971_
*1008 _0972_
*1009 _0973_
*1010 _0974_
*1011 _0975_
*1012 _0976_
*1013 _0977_
*1014 _0978_
*1015 _0979_
*1016 _0980_
*1017 _0981_
*1018 _0982_
*1019 _0983_
*1020 _0984_
*1021 _0985_
*1022 _0986_
*1023 _0987_
*1024 _0988_
*1025 _0989_
*1026 _0990_
*1027 _0991_
*1028 _0992_
*1029 _0993_
*1030 _0994_
*1031 _0995_
*1032 _0996_
*1033 _0997_
*1034 _0998_
*1035 _0999_
*1036 _1000_
*1037 _1001_
*1038 _1002_
*1039 _1003_
*1040 _1004_
*1041 _1005_
*1042 _1006_
*1043 _1007_
*1044 _1008_
*1045 _1009_
*1046 _1010_
*1047 _1011_
*1048 _1012_
*1049 _1013_
*1050 _1014_
*1051 _1015_
*1052 _1016_
*1053 _1017_
*1054 _1018_
*1055 _1019_
*1056 _1020_
*1057 _1021_
*1058 _1022_
*1059 _1023_
*1060 _1024_
*1061 _1025_
*1062 _1026_
*1063 _1027_
*1064 _1028_
*1065 _1029_
*1066 _1030_
*1067 _1031_
*1068 _1032_
*1069 _1033_
*1070 _1034_
*1071 _1035_
*1072 _1036_
*1073 _1037_
*1074 _1038_
*1075 _1039_
*1076 _1040_
*1077 _1041_
*1078 _1042_
*1079 _1043_
*1080 _1044_
*1081 _1045_
*1082 _1046_
*1083 _1047_
*1084 _1048_
*1085 _1049_
*1086 _1050_
*1087 _1051_
*1088 _1052_
*1089 _1053_
*1090 _1054_
*1091 _1055_
*1092 _1056_
*1093 _1057_
*1094 _1058_
*1095 _1059_
*1096 _1060_
*1097 _1061_
*1098 _1062_
*1099 _1063_
*1100 _1064_
*1101 _1065_
*1102 _1066_
*1103 _1067_
*1104 _1068_
*1105 _1069_
*1106 _1070_
*1107 _1071_
*1108 _1072_
*1109 _1073_
*1110 _1074_
*1111 _1075_
*1112 _1076_
*1113 _1077_
*1114 _1078_
*1115 _1079_
*1116 _1080_
*1117 _1081_
*1118 _1082_
*1119 _1083_
*1120 _1084_
*1121 _1085_
*1122 _1086_
*1123 _1087_
*1124 _1088_
*1125 _1089_
*1126 _1090_
*1127 _1091_
*1128 _1092_
*1129 _1093_
*1130 _1094_
*1131 _1095_
*1132 _1096_
*1133 _1097_
*1134 _1098_
*1135 _1099_
*1136 _1100_
*1137 _1101_
*1138 _1102_
*1139 _1103_
*1140 _1104_
*1141 _1105_
*1142 _1106_
*1143 _1107_
*1144 _1108_
*1145 _1109_
*1146 _1110_
*1147 _1111_
*1148 _1112_
*1149 _1113_
*1150 _1114_
*1151 _1115_
*1152 _1116_
*1153 _1117_
*1154 _1118_
*1155 _1119_
*1156 _1120_
*1157 _1121_
*1158 _1122_
*1159 _1123_
*1160 _1124_
*1161 _1125_
*1162 _1126_
*1163 _1127_
*1164 _1128_
*1165 _1129_
*1166 _1130_
*1167 _1131_
*1168 _1132_
*1169 _1133_
*1170 _1134_
*1171 _1135_
*1172 _1136_
*1173 _1137_
*1174 _1138_
*1175 _1139_
*1176 _1140_
*1177 _1141_
*1178 _1142_
*1179 _1143_
*1180 _1144_
*1181 _1145_
*1182 _1146_
*1183 _1147_
*1184 _1148_
*1185 _1149_
*1186 _1150_
*1187 _1151_
*1188 _1152_
*1189 _1153_
*1190 _1154_
*1191 _1155_
*1192 _1156_
*1193 _1157_
*1194 _1158_
*1195 _1159_
*1196 _1160_
*1197 _1161_
*1198 _1162_
*1199 _1163_
*1200 _1164_
*1201 _1165_
*1202 _1166_
*1203 _1167_
*1204 _1168_
*1205 _1169_
*1206 _1170_
*1207 _1171_
*1208 clknet_0_clk
*1209 clknet_2_0__leaf_clk
*1210 clknet_2_1__leaf_clk
*1211 clknet_2_2__leaf_clk
*1212 clknet_2_3__leaf_clk
*1213 gate\.saved_func\[0\]
*1214 gate\.saved_func\[10\]
*1215 gate\.saved_func\[11\]
*1216 gate\.saved_func\[12\]
*1217 gate\.saved_func\[13\]
*1218 gate\.saved_func\[14\]
*1219 gate\.saved_func\[15\]
*1220 gate\.saved_func\[1\]
*1221 gate\.saved_func\[2\]
*1222 gate\.saved_func\[3\]
*1223 gate\.saved_func\[4\]
*1224 gate\.saved_func\[5\]
*1225 gate\.saved_func\[6\]
*1226 gate\.saved_func\[7\]
*1227 gate\.saved_func\[8\]
*1228 gate\.saved_func\[9\]
*1229 gate\.saved_pin\[0\]
*1230 gate\.saved_pin\[1\]
*1231 gate\.saved_pin\[2\]
*1232 gate\.saved_pin\[3\]
*1233 gate\.saved_sel\[0\]
*1234 gate\.saved_sel\[1\]
*1235 gate\.ucomb_ref_inst\.u21_ref_inst\.wfull\[0\]
*1236 gate\.ucomb_ref_inst\.u21_ref_inst\.wfull\[10\]
*1237 gate\.ucomb_ref_inst\.u21_ref_inst\.wfull\[3\]
*1238 gate\.ucomb_ref_inst\.u21_ref_inst\.wfull\[4\]
*1239 gate\.ucomb_ref_inst\.u21_ref_inst\.wfull\[6\]
*1240 gate\.ucomb_ref_inst\.u21_ref_inst\.wfull\[7\]
*1241 gate\.ucomb_ref_inst\.u21_ref_inst\.wfull\[9\]
*1242 gate\.ucomb_ref_inst\.u31_ref_inst\.wfull\[0\]
*1243 gate\.ucomb_ref_inst\.u31_ref_inst\.wfull\[10\]
*1244 gate\.ucomb_ref_inst\.u31_ref_inst\.wfull\[11\]
*1245 gate\.ucomb_ref_inst\.u31_ref_inst\.wfull\[12\]
*1246 gate\.ucomb_ref_inst\.u31_ref_inst\.wfull\[13\]
*1247 gate\.ucomb_ref_inst\.u31_ref_inst\.wfull\[14\]
*1248 gate\.ucomb_ref_inst\.u31_ref_inst\.wfull\[15\]
*1249 gate\.ucomb_ref_inst\.u31_ref_inst\.wfull\[16\]
*1250 gate\.ucomb_ref_inst\.u31_ref_inst\.wfull\[17\]
*1251 gate\.ucomb_ref_inst\.u31_ref_inst\.wfull\[1\]
*1252 gate\.ucomb_ref_inst\.u31_ref_inst\.wfull\[2\]
*1253 gate\.ucomb_ref_inst\.u31_ref_inst\.wfull\[3\]
*1254 gate\.ucomb_ref_inst\.u31_ref_inst\.wfull\[4\]
*1255 gate\.ucomb_ref_inst\.u31_ref_inst\.wfull\[5\]
*1256 gate\.ucomb_ref_inst\.u31_ref_inst\.wfull\[6\]
*1257 gate\.ucomb_ref_inst\.u31_ref_inst\.wfull\[7\]
*1258 gate\.ucomb_ref_inst\.u31_ref_inst\.wfull\[8\]
*1259 gate\.ucomb_ref_inst\.u31_ref_inst\.wfull\[9\]
*1260 net1
*1261 net10
*1262 net11
*1263 net12
*1264 net13
*1265 net14
*1266 net15
*1267 net16
*1268 net17
*1269 net18
*1270 net19
*1271 net2
*1272 net20
*1273 net21
*1274 net22
*1275 net23
*1276 net24
*1277 net25
*1278 net26
*1279 net27
*1280 net28
*1281 net29
*1282 net3
*1283 net30
*1284 net31
*1285 net4
*1286 net5
*1287 net6
*1288 net7
*1289 net8
*1290 net9
*1291 ANTENNA__1172__I
*1292 ANTENNA__1174__I
*1293 ANTENNA__1178__I
*1294 ANTENNA__1182__I
*1295 ANTENNA__1184__I
*1296 ANTENNA__1186__I
*1297 ANTENNA__1188__I
*1298 ANTENNA__1193__I
*1299 ANTENNA__1196__I
*1300 ANTENNA__1198__I
*1301 ANTENNA__1204__I
*1302 ANTENNA__1207__I
*1303 ANTENNA__1209__A3
*1304 ANTENNA__1212__B1
*1305 ANTENNA__1212__B2
*1306 ANTENNA__1214__A2
*1307 ANTENNA__1215__A3
*1308 ANTENNA__1219__I
*1309 ANTENNA__1224__I
*1310 ANTENNA__1231__A1
*1311 ANTENNA__1231__A2
*1312 ANTENNA__1232__I
*1313 ANTENNA__1233__A1
*1314 ANTENNA__1236__I
*1315 ANTENNA__1239__A1
*1316 ANTENNA__1239__A2
*1317 ANTENNA__1239__B
*1318 ANTENNA__1240__I
*1319 ANTENNA__1241__I
*1320 ANTENNA__1248__A3
*1321 ANTENNA__1248__A4
*1322 ANTENNA__1250__I
*1323 ANTENNA__1252__I
*1324 ANTENNA__1255__I
*1325 ANTENNA__1257__A1
*1326 ANTENNA__1257__A2
*1327 ANTENNA__1263__I
*1328 ANTENNA__1265__I
*1329 ANTENNA__1267__A1
*1330 ANTENNA__1267__B1
*1331 ANTENNA__1267__B2
*1332 ANTENNA__1267__C
*1333 ANTENNA__1268__A1
*1334 ANTENNA__1269__I
*1335 ANTENNA__1273__I
*1336 ANTENNA__1276__A2
*1337 ANTENNA__1283__A1
*1338 ANTENNA__1283__A3
*1339 ANTENNA__1284__I
*1340 ANTENNA__1286__I
*1341 ANTENNA__1287__I
*1342 ANTENNA__1289__A1
*1343 ANTENNA__1291__A1
*1344 ANTENNA__1291__A2
*1345 ANTENNA__1296__I
*1346 ANTENNA__1300__A1
*1347 ANTENNA__1301__A1
*1348 ANTENNA__1301__A2
*1349 ANTENNA__1301__A3
*1350 ANTENNA__1302__A1
*1351 ANTENNA__1304__I
*1352 ANTENNA__1305__I
*1353 ANTENNA__1309__I
*1354 ANTENNA__1312__A2
*1355 ANTENNA__1312__B
*1356 ANTENNA__1314__A1
*1357 ANTENNA__1315__A1
*1358 ANTENNA__1315__A2
*1359 ANTENNA__1315__A3
*1360 ANTENNA__1317__I
*1361 ANTENNA__1318__B
*1362 ANTENNA__1320__I
*1363 ANTENNA__1321__I
*1364 ANTENNA__1322__B
*1365 ANTENNA__1323__A2
*1366 ANTENNA__1324__I
*1367 ANTENNA__1325__I
*1368 ANTENNA__1330__A2
*1369 ANTENNA__1330__B
*1370 ANTENNA__1331__I
*1371 ANTENNA__1333__B
*1372 ANTENNA__1334__A1
*1373 ANTENNA__1336__I
*1374 ANTENNA__1337__I
*1375 ANTENNA__1341__A2
*1376 ANTENNA__1344__I
*1377 ANTENNA__1351__A1
*1378 ANTENNA__1351__A2
*1379 ANTENNA__1352__I
*1380 ANTENNA__1357__I
*1381 ANTENNA__1363__I
*1382 ANTENNA__1365__I
*1383 ANTENNA__1366__A2
*1384 ANTENNA__1367__I
*1385 ANTENNA__1369__I
*1386 ANTENNA__1370__A1
*1387 ANTENNA__1371__I
*1388 ANTENNA__1374__A2
*1389 ANTENNA__1374__B
*1390 ANTENNA__1375__A1
*1391 ANTENNA__1375__A2
*1392 ANTENNA__1375__B
*1393 ANTENNA__1376__A2
*1394 ANTENNA__1378__I
*1395 ANTENNA__1381__I
*1396 ANTENNA__1384__I
*1397 ANTENNA__1389__A1
*1398 ANTENNA__1390__A1
*1399 ANTENNA__1390__A2
*1400 ANTENNA__1390__A3
*1401 ANTENNA__1392__I
*1402 ANTENNA__1395__I
*1403 ANTENNA__1396__I
*1404 ANTENNA__1398__B1
*1405 ANTENNA__1398__B2
*1406 ANTENNA__1398__C
*1407 ANTENNA__1402__A2
*1408 ANTENNA__1402__B
*1409 ANTENNA__1404__A1
*1410 ANTENNA__1404__A2
*1411 ANTENNA__1406__A1
*1412 ANTENNA__1406__A2
*1413 ANTENNA__1406__B
*1414 ANTENNA__1408__A1
*1415 ANTENNA__1409__A1
*1416 ANTENNA__1409__A2
*1417 ANTENNA__1410__C
*1418 ANTENNA__1411__A1
*1419 ANTENNA__1412__A1
*1420 ANTENNA__1414__I
*1421 ANTENNA__1418__I
*1422 ANTENNA__1419__I0
*1423 ANTENNA__1421__I
*1424 ANTENNA__1425__I
*1425 ANTENNA__1426__I
*1426 ANTENNA__1428__I
*1427 ANTENNA__1430__A1
*1428 ANTENNA__1430__A2
*1429 ANTENNA__1431__I
*1430 ANTENNA__1432__A2
*1431 ANTENNA__1434__A1
*1432 ANTENNA__1434__A2
*1433 ANTENNA__1434__A3
*1434 ANTENNA__1434__A4
*1435 ANTENNA__1435__I
*1436 ANTENNA__1436__I
*1437 ANTENNA__1439__A1
*1438 ANTENNA__1439__A2
*1439 ANTENNA__1439__A3
*1440 ANTENNA__1441__I
*1441 ANTENNA__1443__I
*1442 ANTENNA__1445__I
*1443 ANTENNA__1447__I
*1444 ANTENNA__1448__A1
*1445 ANTENNA__1448__A3
*1446 ANTENNA__1448__B1
*1447 ANTENNA__1451__I
*1448 ANTENNA__1455__I
*1449 ANTENNA__1456__A1
*1450 ANTENNA__1456__A3
*1451 ANTENNA__1458__A3
*1452 ANTENNA__1460__A1
*1453 ANTENNA__1461__I
*1454 ANTENNA__1464__A1
*1455 ANTENNA__1464__A2
*1456 ANTENNA__1466__A1
*1457 ANTENNA__1466__A2
*1458 ANTENNA__1466__A3
*1459 ANTENNA__1466__B1
*1460 ANTENNA__1471__A1
*1461 ANTENNA__1471__A2
*1462 ANTENNA__1471__B
*1463 ANTENNA__1474__A1
*1464 ANTENNA__1474__A2
*1465 ANTENNA__1474__B
*1466 ANTENNA__1475__A1
*1467 ANTENNA__1479__I
*1468 ANTENNA__1480__I
*1469 ANTENNA__1481__I
*1470 ANTENNA__1483__A1
*1471 ANTENNA__1484__I
*1472 ANTENNA__1486__A2
*1473 ANTENNA__1487__A1
*1474 ANTENNA__1487__B1
*1475 ANTENNA__1487__B2
*1476 ANTENNA__1488__A1
*1477 ANTENNA__1488__A2
*1478 ANTENNA__1489__I
*1479 ANTENNA__1494__A1
*1480 ANTENNA__1494__A2
*1481 ANTENNA__1498__I
*1482 ANTENNA__1500__I
*1483 ANTENNA__1502__A3
*1484 ANTENNA__1503__A1
*1485 ANTENNA__1505__I
*1486 ANTENNA__1508__I
*1487 ANTENNA__1509__C
*1488 ANTENNA__1511__I
*1489 ANTENNA__1512__A1
*1490 ANTENNA__1512__C
*1491 ANTENNA__1514__I
*1492 ANTENNA__1515__I
*1493 ANTENNA__1517__I
*1494 ANTENNA__1520__A1
*1495 ANTENNA__1520__A2
*1496 ANTENNA__1521__B
*1497 ANTENNA__1521__C
*1498 ANTENNA__1522__I
*1499 ANTENNA__1523__A1
*1500 ANTENNA__1523__C
*1501 ANTENNA__1527__A1
*1502 ANTENNA__1528__A2
*1503 ANTENNA__1529__A1
*1504 ANTENNA__1529__A2
*1505 ANTENNA__1529__A3
*1506 ANTENNA__1529__B
*1507 ANTENNA__1531__A2
*1508 ANTENNA__1532__A2
*1509 ANTENNA__1533__I
*1510 ANTENNA__1536__I
*1511 ANTENNA__1537__A1
*1512 ANTENNA__1537__B
*1513 ANTENNA__1537__C
*1514 ANTENNA__1538__A2
*1515 ANTENNA__1539__A2
*1516 ANTENNA__1541__B2
*1517 ANTENNA__1542__I
*1518 ANTENNA__1544__I
*1519 ANTENNA__1545__A2
*1520 ANTENNA__1550__B
*1521 ANTENNA__1551__A1
*1522 ANTENNA__1551__B
*1523 ANTENNA__1552__A2
*1524 ANTENNA__1554__A2
*1525 ANTENNA__1556__I
*1526 ANTENNA__1558__A1
*1527 ANTENNA__1558__A2
*1528 ANTENNA__1558__B
*1529 ANTENNA__1559__A1
*1530 ANTENNA__1559__A2
*1531 ANTENNA__1559__B1
*1532 ANTENNA__1559__C
*1533 ANTENNA__1561__A2
*1534 ANTENNA__1563__A1
*1535 ANTENNA__1563__A2
*1536 ANTENNA__1564__A1
*1537 ANTENNA__1564__A2
*1538 ANTENNA__1565__B
*1539 ANTENNA__1568__A1
*1540 ANTENNA__1569__A1
*1541 ANTENNA__1572__A2
*1542 ANTENNA__1573__A1
*1543 ANTENNA__1573__A2
*1544 ANTENNA__1576__A1
*1545 ANTENNA__1577__A1
*1546 ANTENNA__1578__I
*1547 ANTENNA__1580__A2
*1548 ANTENNA__1581__I
*1549 ANTENNA__1582__A1
*1550 ANTENNA__1582__A2
*1551 ANTENNA__1583__I
*1552 ANTENNA__1586__A1
*1553 ANTENNA__1586__A2
*1554 ANTENNA__1586__B
*1555 ANTENNA__1587__A1
*1556 ANTENNA__1587__B1
*1557 ANTENNA__1587__B2
*1558 ANTENNA__1588__A1
*1559 ANTENNA__1589__A1
*1560 ANTENNA__1593__B2
*1561 ANTENNA__1596__A1
*1562 ANTENNA__1597__B
*1563 ANTENNA__1599__A2
*1564 ANTENNA__1600__I
*1565 ANTENNA__1601__A1
*1566 ANTENNA__1601__A2
*1567 ANTENNA__1603__C
*1568 ANTENNA__1606__I
*1569 ANTENNA__1607__A2
*1570 ANTENNA__1607__B
*1571 ANTENNA__1608__I
*1572 ANTENNA__1609__A1
*1573 ANTENNA__1609__B
*1574 ANTENNA__1610__I
*1575 ANTENNA__1611__I
*1576 ANTENNA__1612__A2
*1577 ANTENNA__1613__I
*1578 ANTENNA__1614__A1
*1579 ANTENNA__1614__A2
*1580 ANTENNA__1614__A3
*1581 ANTENNA__1615__A1
*1582 ANTENNA__1617__A1
*1583 ANTENNA__1618__B
*1584 ANTENNA__1622__A1
*1585 ANTENNA__1622__A2
*1586 ANTENNA__1623__A1
*1587 ANTENNA__1625__A1
*1588 ANTENNA__1625__A2
*1589 ANTENNA__1625__A3
*1590 ANTENNA__1626__A1
*1591 ANTENNA__1626__A2
*1592 ANTENNA__1627__A1
*1593 ANTENNA__1627__C
*1594 ANTENNA__1628__I
*1595 ANTENNA__1630__I
*1596 ANTENNA__1632__I
*1597 ANTENNA__1633__A1
*1598 ANTENNA__1633__A2
*1599 ANTENNA__1633__B1
*1600 ANTENNA__1633__B2
*1601 ANTENNA__1635__I
*1602 ANTENNA__1637__I
*1603 ANTENNA__1639__A1
*1604 ANTENNA__1639__A2
*1605 ANTENNA__1639__B
*1606 ANTENNA__1639__C
*1607 ANTENNA__1640__A1
*1608 ANTENNA__1641__I
*1609 ANTENNA__1642__B
*1610 ANTENNA__1646__B
*1611 ANTENNA__1651__A1
*1612 ANTENNA__1651__A2
*1613 ANTENNA__1651__B
*1614 ANTENNA__1651__C
*1615 ANTENNA__1652__A1
*1616 ANTENNA__1653__I
*1617 ANTENNA__1654__A1
*1618 ANTENNA__1655__B1
*1619 ANTENNA__1655__B2
*1620 ANTENNA__1656__A1
*1621 ANTENNA__1656__B
*1622 ANTENNA__1657__I
*1623 ANTENNA__1658__A2
*1624 ANTENNA__1659__I
*1625 ANTENNA__1660__I
*1626 ANTENNA__1661__B1
*1627 ANTENNA__1661__B2
*1628 ANTENNA__1662__A1
*1629 ANTENNA__1662__C
*1630 ANTENNA__1663__I
*1631 ANTENNA__1664__I
*1632 ANTENNA__1666__A2
*1633 ANTENNA__1666__A3
*1634 ANTENNA__1667__A2
*1635 ANTENNA__1668__A1
*1636 ANTENNA__1669__A1
*1637 ANTENNA__1669__B
*1638 ANTENNA__1670__A1
*1639 ANTENNA__1670__B
*1640 ANTENNA__1672__A2
*1641 ANTENNA__1674__I
*1642 ANTENNA__1676__A1
*1643 ANTENNA__1676__A2
*1644 ANTENNA__1678__A1
*1645 ANTENNA__1678__A2
*1646 ANTENNA__1678__B1
*1647 ANTENNA__1678__C
*1648 ANTENNA__1679__A1
*1649 ANTENNA__1679__A2
*1650 ANTENNA__1679__B
*1651 ANTENNA__1680__A1
*1652 ANTENNA__1680__A2
*1653 ANTENNA__1681__B
*1654 ANTENNA__1683__A1
*1655 ANTENNA__1683__A2
*1656 ANTENNA__1684__A1
*1657 ANTENNA__1685__I
*1658 ANTENNA__1687__A1
*1659 ANTENNA__1687__A2
*1660 ANTENNA__1687__B
*1661 ANTENNA__1689__I
*1662 ANTENNA__1691__A1
*1663 ANTENNA__1691__A2
*1664 ANTENNA__1692__A1
*1665 ANTENNA__1692__A2
*1666 ANTENNA__1692__B
*1667 ANTENNA__1693__A1
*1668 ANTENNA__1693__B
*1669 ANTENNA__1695__A1
*1670 ANTENNA__1696__I
*1671 ANTENNA__1697__I
*1672 ANTENNA__1701__A1
*1673 ANTENNA__1701__A2
*1674 ANTENNA__1701__B1
*1675 ANTENNA__1701__B2
*1676 ANTENNA__1703__A2
*1677 ANTENNA__1703__B2
*1678 ANTENNA__1703__C
*1679 ANTENNA__1705__I
*1680 ANTENNA__1706__A1
*1681 ANTENNA__1706__A2
*1682 ANTENNA__1706__B
*1683 ANTENNA__1706__C
*1684 ANTENNA__1708__I
*1685 ANTENNA__1711__A1
*1686 ANTENNA__1711__A2
*1687 ANTENNA__1712__A1
*1688 ANTENNA__1712__C
*1689 ANTENNA__1715__A1
*1690 ANTENNA__1716__A2
*1691 ANTENNA__1716__B
*1692 ANTENNA__1717__A1
*1693 ANTENNA__1717__A2
*1694 ANTENNA__1717__A3
*1695 ANTENNA__1718__A2
*1696 ANTENNA__1720__I
*1697 ANTENNA__1721__I
*1698 ANTENNA__1722__I
*1699 ANTENNA__1724__A1
*1700 ANTENNA__1724__A2
*1701 ANTENNA__1725__A1
*1702 ANTENNA__1725__B
*1703 ANTENNA__1725__C
*1704 ANTENNA__1727__B
*1705 ANTENNA__1727__C
*1706 ANTENNA__1728__I
*1707 ANTENNA__1729__A1
*1708 ANTENNA__1729__A2
*1709 ANTENNA__1730__A1
*1710 ANTENNA__1730__A2
*1711 ANTENNA__1730__A3
*1712 ANTENNA__1731__A1
*1713 ANTENNA__1732__A1
*1714 ANTENNA__1733__A1
*1715 ANTENNA__1733__A2
*1716 ANTENNA__1733__B
*1717 ANTENNA__1735__A1
*1718 ANTENNA__1735__B
*1719 ANTENNA__1737__A1
*1720 ANTENNA__1737__A2
*1721 ANTENNA__1738__A1
*1722 ANTENNA__1738__B1
*1723 ANTENNA__1738__C
*1724 ANTENNA__1740__A1
*1725 ANTENNA__1740__B
*1726 ANTENNA__1743__A1
*1727 ANTENNA__1743__A2
*1728 ANTENNA__1743__A3
*1729 ANTENNA__1745__A1
*1730 ANTENNA__1745__A3
*1731 ANTENNA__1745__B
*1732 ANTENNA__1746__A2
*1733 ANTENNA__1747__I
*1734 ANTENNA__1748__I
*1735 ANTENNA__1749__A1
*1736 ANTENNA__1749__A3
*1737 ANTENNA__1750__A1
*1738 ANTENNA__1751__A2
*1739 ANTENNA__1752__A1
*1740 ANTENNA__1752__B
*1741 ANTENNA__1753__A1
*1742 ANTENNA__1753__A2
*1743 ANTENNA__1758__A1
*1744 ANTENNA__1758__A2
*1745 ANTENNA__1758__B
*1746 ANTENNA__1760__A1
*1747 ANTENNA__1760__A2
*1748 ANTENNA__1760__A3
*1749 ANTENNA__1760__B1
*1750 ANTENNA__1760__B2
*1751 ANTENNA__1761__B
*1752 ANTENNA__1762__A2
*1753 ANTENNA__1764__B2
*1754 ANTENNA__1765__A1
*1755 ANTENNA__1765__C
*1756 ANTENNA__1766__B
*1757 ANTENNA__1768__I
*1758 ANTENNA__1769__A1
*1759 ANTENNA__1769__A2
*1760 ANTENNA__1769__A3
*1761 ANTENNA__1771__A1
*1762 ANTENNA__1771__A2
*1763 ANTENNA__1771__B1
*1764 ANTENNA__1771__B2
*1765 ANTENNA__1771__C
*1766 ANTENNA__1772__I
*1767 ANTENNA__1774__I
*1768 ANTENNA__1776__A1
*1769 ANTENNA__1776__A2
*1770 ANTENNA__1776__B1
*1771 ANTENNA__1776__B2
*1772 ANTENNA__1776__C
*1773 ANTENNA__1777__A1
*1774 ANTENNA__1778__A1
*1775 ANTENNA__1778__A2
*1776 ANTENNA__1778__B
*1777 ANTENNA__1779__I
*1778 ANTENNA__1780__A1
*1779 ANTENNA__1780__A2
*1780 ANTENNA__1781__C
*1781 ANTENNA__1782__A1
*1782 ANTENNA__1785__A1
*1783 ANTENNA__1786__A1
*1784 ANTENNA__1786__A2
*1785 ANTENNA__1786__A3
*1786 ANTENNA__1788__A1
*1787 ANTENNA__1788__A2
*1788 ANTENNA__1788__B
*1789 ANTENNA__1790__I
*1790 ANTENNA__1791__A2
*1791 ANTENNA__1792__A1
*1792 ANTENNA__1792__A2
*1793 ANTENNA__1792__B
*1794 ANTENNA__1793__A1
*1795 ANTENNA__1795__A1
*1796 ANTENNA__1795__A2
*1797 ANTENNA__1796__I
*1798 ANTENNA__1797__A1
*1799 ANTENNA__1797__A2
*1800 ANTENNA__1797__C
*1801 ANTENNA__1798__A1
*1802 ANTENNA__1798__A2
*1803 ANTENNA__1798__A3
*1804 ANTENNA__1799__A1
*1805 ANTENNA__1799__B
*1806 ANTENNA__1800__B
*1807 ANTENNA__1801__A1
*1808 ANTENNA__1802__A3
*1809 ANTENNA__1803__A1
*1810 ANTENNA__1803__A2
*1811 ANTENNA__1803__B
*1812 ANTENNA__1804__A1
*1813 ANTENNA__1804__B
*1814 ANTENNA__1805__A2
*1815 ANTENNA__1807__A1
*1816 ANTENNA__1807__B
*1817 ANTENNA__1809__A1
*1818 ANTENNA__1809__A2
*1819 ANTENNA__1809__A3
*1820 ANTENNA__1810__A1
*1821 ANTENNA__1811__B
*1822 ANTENNA__1812__A1
*1823 ANTENNA__1812__A2
*1824 ANTENNA__1812__B
*1825 ANTENNA__1812__C
*1826 ANTENNA__1813__A1
*1827 ANTENNA__1815__B1
*1828 ANTENNA__1815__B2