*SPEF "ieee 1481-1999"
*DESIGN "user_project_wrapper"
*DATE "11:11:11 Fri 11 11, 1111"
*VENDOR "OpenRCX"
*PROGRAM "Parallel Extraction"
*VERSION "1.0"
*DESIGN_FLOW "NAME_SCOPE LOCAL" "PIN_CAP NONE"
*DIVIDER /
*DELIMITER :
*BUS_DELIMITER []
*T_UNIT 1 NS
*C_UNIT 1 PF
*R_UNIT 1 OHM
*L_UNIT 1 HENRY

*NAME_MAP
*1 io_in[0]
*2 io_in[10]
*3 io_in[11]
*4 io_in[12]
*5 io_in[13]
*6 io_in[14]
*7 io_in[15]
*8 io_in[16]
*9 io_in[17]
*10 io_in[18]
*11 io_in[19]
*12 io_in[1]
*13 io_in[20]
*14 io_in[21]
*15 io_in[22]
*16 io_in[23]
*17 io_in[24]
*18 io_in[25]
*19 io_in[26]
*20 io_in[27]
*21 io_in[28]
*22 io_in[29]
*23 io_in[2]
*24 io_in[30]
*25 io_in[31]
*26 io_in[32]
*27 io_in[33]
*28 io_in[34]
*29 io_in[35]
*30 io_in[36]
*31 io_in[37]
*32 io_in[3]
*33 io_in[4]
*34 io_in[5]
*35 io_in[6]
*36 io_in[7]
*37 io_in[8]
*38 io_in[9]
*39 io_oeb[0]
*40 io_oeb[10]
*41 io_oeb[11]
*42 io_oeb[12]
*43 io_oeb[13]
*44 io_oeb[14]
*45 io_oeb[15]
*46 io_oeb[16]
*47 io_oeb[17]
*48 io_oeb[18]
*49 io_oeb[19]
*50 io_oeb[1]
*51 io_oeb[20]
*52 io_oeb[21]
*53 io_oeb[22]
*54 io_oeb[23]
*55 io_oeb[24]
*56 io_oeb[25]
*57 io_oeb[26]
*58 io_oeb[27]
*59 io_oeb[28]
*60 io_oeb[29]
*61 io_oeb[2]
*62 io_oeb[30]
*63 io_oeb[31]
*64 io_oeb[32]
*65 io_oeb[33]
*66 io_oeb[34]
*67 io_oeb[35]
*68 io_oeb[36]
*69 io_oeb[37]
*70 io_oeb[3]
*71 io_oeb[4]
*72 io_oeb[5]
*73 io_oeb[6]
*74 io_oeb[7]
*75 io_oeb[8]
*76 io_oeb[9]
*77 io_out[0]
*78 io_out[10]
*79 io_out[11]
*80 io_out[12]
*81 io_out[13]
*82 io_out[14]
*83 io_out[15]
*84 io_out[16]
*85 io_out[17]
*86 io_out[18]
*87 io_out[19]
*88 io_out[1]
*89 io_out[20]
*90 io_out[21]
*91 io_out[22]
*92 io_out[23]
*93 io_out[24]
*94 io_out[25]
*95 io_out[26]
*96 io_out[27]
*97 io_out[28]
*98 io_out[29]
*99 io_out[2]
*100 io_out[30]
*101 io_out[31]
*102 io_out[32]
*103 io_out[33]
*104 io_out[34]
*105 io_out[35]
*106 io_out[36]
*107 io_out[37]
*108 io_out[3]
*109 io_out[4]
*110 io_out[5]
*111 io_out[6]
*112 io_out[7]
*113 io_out[8]
*114 io_out[9]
*115 la_data_in[0]
*116 la_data_in[10]
*117 la_data_in[11]
*118 la_data_in[12]
*119 la_data_in[13]
*120 la_data_in[14]
*121 la_data_in[15]
*122 la_data_in[16]
*123 la_data_in[17]
*124 la_data_in[18]
*125 la_data_in[19]
*126 la_data_in[1]
*127 la_data_in[20]
*128 la_data_in[21]
*129 la_data_in[22]
*130 la_data_in[23]
*131 la_data_in[24]
*132 la_data_in[25]
*133 la_data_in[26]
*134 la_data_in[27]
*135 la_data_in[28]
*136 la_data_in[29]
*137 la_data_in[2]
*138 la_data_in[30]
*139 la_data_in[31]
*140 la_data_in[32]
*141 la_data_in[33]
*142 la_data_in[34]
*143 la_data_in[35]
*144 la_data_in[36]
*145 la_data_in[37]
*146 la_data_in[38]
*147 la_data_in[39]
*148 la_data_in[3]
*149 la_data_in[40]
*150 la_data_in[41]
*151 la_data_in[42]
*152 la_data_in[43]
*153 la_data_in[44]
*154 la_data_in[45]
*155 la_data_in[46]
*156 la_data_in[47]
*157 la_data_in[48]
*158 la_data_in[49]
*159 la_data_in[4]
*160 la_data_in[50]
*161 la_data_in[51]
*162 la_data_in[52]
*163 la_data_in[53]
*164 la_data_in[54]
*165 la_data_in[55]
*166 la_data_in[56]
*167 la_data_in[57]
*168 la_data_in[58]
*169 la_data_in[59]
*170 la_data_in[5]
*171 la_data_in[60]
*172 la_data_in[61]
*173 la_data_in[62]
*174 la_data_in[63]
*175 la_data_in[6]
*176 la_data_in[7]
*177 la_data_in[8]
*178 la_data_in[9]
*179 la_data_out[0]
*180 la_data_out[10]
*181 la_data_out[11]
*182 la_data_out[12]
*183 la_data_out[13]
*184 la_data_out[14]
*185 la_data_out[15]
*186 la_data_out[16]
*187 la_data_out[17]
*188 la_data_out[18]
*189 la_data_out[19]
*190 la_data_out[1]
*191 la_data_out[20]
*192 la_data_out[21]
*193 la_data_out[22]
*194 la_data_out[23]
*195 la_data_out[24]
*196 la_data_out[25]
*197 la_data_out[26]
*198 la_data_out[27]
*199 la_data_out[28]
*200 la_data_out[29]
*201 la_data_out[2]
*202 la_data_out[30]
*203 la_data_out[31]
*204 la_data_out[32]
*205 la_data_out[33]
*206 la_data_out[34]
*207 la_data_out[35]
*208 la_data_out[36]
*209 la_data_out[37]
*210 la_data_out[38]
*211 la_data_out[39]
*212 la_data_out[3]
*213 la_data_out[40]
*214 la_data_out[41]
*215 la_data_out[42]
*216 la_data_out[43]
*217 la_data_out[44]
*218 la_data_out[45]
*219 la_data_out[46]
*220 la_data_out[47]
*221 la_data_out[48]
*222 la_data_out[49]
*223 la_data_out[4]
*224 la_data_out[50]
*225 la_data_out[51]
*226 la_data_out[52]
*227 la_data_out[53]
*228 la_data_out[54]
*229 la_data_out[55]
*230 la_data_out[56]
*231 la_data_out[57]
*232 la_data_out[58]
*233 la_data_out[59]
*234 la_data_out[5]
*235 la_data_out[60]
*236 la_data_out[61]
*237 la_data_out[62]
*238 la_data_out[63]
*239 la_data_out[6]
*240 la_data_out[7]
*241 la_data_out[8]
*242 la_data_out[9]
*243 la_oenb[0]
*244 la_oenb[10]
*245 la_oenb[11]
*246 la_oenb[12]
*247 la_oenb[13]
*248 la_oenb[14]
*249 la_oenb[15]
*250 la_oenb[16]
*251 la_oenb[17]
*252 la_oenb[18]
*253 la_oenb[19]
*254 la_oenb[1]
*255 la_oenb[20]
*256 la_oenb[21]
*257 la_oenb[22]
*258 la_oenb[23]
*259 la_oenb[24]
*260 la_oenb[25]
*261 la_oenb[26]
*262 la_oenb[27]
*263 la_oenb[28]
*264 la_oenb[29]
*265 la_oenb[2]
*266 la_oenb[30]
*267 la_oenb[31]
*268 la_oenb[32]
*269 la_oenb[33]
*270 la_oenb[34]
*271 la_oenb[35]
*272 la_oenb[36]
*273 la_oenb[37]
*274 la_oenb[38]
*275 la_oenb[39]
*276 la_oenb[3]
*277 la_oenb[40]
*278 la_oenb[41]
*279 la_oenb[42]
*280 la_oenb[43]
*281 la_oenb[44]
*282 la_oenb[45]
*283 la_oenb[46]
*284 la_oenb[47]
*285 la_oenb[48]
*286 la_oenb[49]
*287 la_oenb[4]
*288 la_oenb[50]
*289 la_oenb[51]
*290 la_oenb[52]
*291 la_oenb[53]
*292 la_oenb[54]
*293 la_oenb[55]
*294 la_oenb[56]
*295 la_oenb[57]
*296 la_oenb[58]
*297 la_oenb[59]
*298 la_oenb[5]
*299 la_oenb[60]
*300 la_oenb[61]
*301 la_oenb[62]
*302 la_oenb[63]
*303 la_oenb[6]
*304 la_oenb[7]
*305 la_oenb[8]
*306 la_oenb[9]
*307 user_clock2
*308 user_irq[0]
*309 user_irq[1]
*310 user_irq[2]
*313 wb_clk_i
*314 wb_rst_i
*315 wbs_ack_o
*316 wbs_adr_i[0]
*317 wbs_adr_i[10]
*318 wbs_adr_i[11]
*319 wbs_adr_i[12]
*320 wbs_adr_i[13]
*321 wbs_adr_i[14]
*322 wbs_adr_i[15]
*323 wbs_adr_i[16]
*324 wbs_adr_i[17]
*325 wbs_adr_i[18]
*326 wbs_adr_i[19]
*327 wbs_adr_i[1]
*328 wbs_adr_i[20]
*329 wbs_adr_i[21]
*330 wbs_adr_i[22]
*331 wbs_adr_i[23]
*332 wbs_adr_i[24]
*333 wbs_adr_i[25]
*334 wbs_adr_i[26]
*335 wbs_adr_i[27]
*336 wbs_adr_i[28]
*337 wbs_adr_i[29]
*338 wbs_adr_i[2]
*339 wbs_adr_i[30]
*340 wbs_adr_i[31]
*341 wbs_adr_i[3]
*342 wbs_adr_i[4]
*343 wbs_adr_i[5]
*344 wbs_adr_i[6]
*345 wbs_adr_i[7]
*346 wbs_adr_i[8]
*347 wbs_adr_i[9]
*348 wbs_cyc_i
*349 wbs_dat_i[0]
*350 wbs_dat_i[10]
*351 wbs_dat_i[11]
*352 wbs_dat_i[12]
*353 wbs_dat_i[13]
*354 wbs_dat_i[14]
*355 wbs_dat_i[15]
*356 wbs_dat_i[16]
*357 wbs_dat_i[17]
*358 wbs_dat_i[18]
*359 wbs_dat_i[19]
*360 wbs_dat_i[1]
*361 wbs_dat_i[20]
*362 wbs_dat_i[21]
*363 wbs_dat_i[22]
*364 wbs_dat_i[23]
*365 wbs_dat_i[24]
*366 wbs_dat_i[25]
*367 wbs_dat_i[26]
*368 wbs_dat_i[27]
*369 wbs_dat_i[28]
*370 wbs_dat_i[29]
*371 wbs_dat_i[2]
*372 wbs_dat_i[30]
*373 wbs_dat_i[31]
*374 wbs_dat_i[3]
*375 wbs_dat_i[4]
*376 wbs_dat_i[5]
*377 wbs_dat_i[6]
*378 wbs_dat_i[7]
*379 wbs_dat_i[8]
*380 wbs_dat_i[9]
*381 wbs_dat_o[0]
*382 wbs_dat_o[10]
*383 wbs_dat_o[11]
*384 wbs_dat_o[12]
*385 wbs_dat_o[13]
*386 wbs_dat_o[14]
*387 wbs_dat_o[15]
*388 wbs_dat_o[16]
*389 wbs_dat_o[17]
*390 wbs_dat_o[18]
*391 wbs_dat_o[19]
*392 wbs_dat_o[1]
*393 wbs_dat_o[20]
*394 wbs_dat_o[21]
*395 wbs_dat_o[22]
*396 wbs_dat_o[23]
*397 wbs_dat_o[24]
*398 wbs_dat_o[25]
*399 wbs_dat_o[26]
*400 wbs_dat_o[27]
*401 wbs_dat_o[28]
*402 wbs_dat_o[29]
*403 wbs_dat_o[2]
*404 wbs_dat_o[30]
*405 wbs_dat_o[31]
*406 wbs_dat_o[3]
*407 wbs_dat_o[4]
*408 wbs_dat_o[5]
*409 wbs_dat_o[6]
*410 wbs_dat_o[7]
*411 wbs_dat_o[8]
*412 wbs_dat_o[9]
*413 wbs_sel_i[0]
*414 wbs_sel_i[1]
*415 wbs_sel_i[2]
*416 wbs_sel_i[3]
*417 wbs_stb_i
*418 wbs_we_i
*419 clk
*420 in\[0\]
*421 in\[10\]
*422 in\[11\]
*423 in\[12\]
*424 in\[13\]
*425 in\[14\]
*426 in\[15\]
*427 in\[16\]
*428 in\[17\]
*429 in\[18\]
*430 in\[1\]
*431 in\[2\]
*432 in\[3\]
*433 in\[4\]
*434 in\[5\]
*435 in\[6\]
*436 in\[7\]
*437 in\[8\]
*438 in\[9\]
*439 out\[0\]
*440 out\[10\]
*441 out\[11\]
*442 out\[1\]
*443 out\[2\]
*444 out\[3\]
*445 out\[4\]
*446 out\[5\]
*447 out\[6\]
*448 out\[7\]
*449 out\[8\]
*450 out\[9\]
*451 proj_clk\[0\]
*452 proj_clk\[1\]
*453 proj_clk\[2\]
*454 proj_clk\[3\]
*455 proj_in\[0\]
*456 proj_in\[10\]
*457 proj_in\[11\]
*458 proj_in\[12\]
*459 proj_in\[13\]
*460 proj_in\[14\]
*461 proj_in\[15\]
*462 proj_in\[16\]
*463 proj_in\[17\]
*464 proj_in\[18\]
*465 proj_in\[19\]
*466 proj_in\[1\]
*467 proj_in\[20\]
*468 proj_in\[21\]
*469 proj_in\[22\]
*470 proj_in\[23\]
*471 proj_in\[24\]
*472 proj_in\[25\]
*473 proj_in\[26\]
*474 proj_in\[27\]
*475 proj_in\[28\]
*476 proj_in\[29\]
*477 proj_in\[2\]
*478 proj_in\[30\]
*479 proj_in\[31\]
*480 proj_in\[32\]
*481 proj_in\[33\]
*482 proj_in\[34\]
*483 proj_in\[35\]
*484 proj_in\[36\]
*485 proj_in\[37\]
*486 proj_in\[38\]
*487 proj_in\[39\]
*488 proj_in\[3\]
*489 proj_in\[40\]
*490 proj_in\[41\]
*491 proj_in\[42\]
*492 proj_in\[43\]
*493 proj_in\[44\]
*494 proj_in\[45\]
*495 proj_in\[46\]
*496 proj_in\[47\]
*497 proj_in\[48\]
*498 proj_in\[49\]
*499 proj_in\[4\]
*500 proj_in\[50\]
*501 proj_in\[51\]
*502 proj_in\[52\]
*503 proj_in\[53\]
*504 proj_in\[54\]
*505 proj_in\[55\]
*506 proj_in\[56\]
*507 proj_in\[57\]
*508 proj_in\[58\]
*509 proj_in\[59\]
*510 proj_in\[5\]
*511 proj_in\[60\]
*512 proj_in\[61\]
*513 proj_in\[62\]
*514 proj_in\[63\]
*515 proj_in\[64\]
*516 proj_in\[65\]
*517 proj_in\[66\]
*518 proj_in\[67\]
*519 proj_in\[68\]
*520 proj_in\[69\]
*521 proj_in\[6\]
*522 proj_in\[70\]
*523 proj_in\[71\]
*524 proj_in\[72\]
*525 proj_in\[73\]
*526 proj_in\[74\]
*527 proj_in\[75\]
*528 proj_in\[7\]
*529 proj_in\[8\]
*530 proj_in\[9\]
*531 proj_out\[0\]
*532 proj_out\[10\]
*533 proj_out\[11\]
*534 proj_out\[12\]
*535 proj_out\[13\]
*536 proj_out\[14\]
*537 proj_out\[15\]
*538 proj_out\[16\]
*539 proj_out\[17\]
*540 proj_out\[18\]
*541 proj_out\[19\]
*542 proj_out\[1\]
*543 proj_out\[20\]
*544 proj_out\[21\]
*545 proj_out\[22\]
*546 proj_out\[23\]
*547 proj_out\[24\]
*548 proj_out\[25\]
*549 proj_out\[26\]
*550 proj_out\[27\]
*551 proj_out\[28\]
*552 proj_out\[29\]
*553 proj_out\[2\]
*554 proj_out\[30\]
*555 proj_out\[31\]
*556 proj_out\[32\]
*557 proj_out\[33\]
*558 proj_out\[34\]
*559 proj_out\[35\]
*560 proj_out\[36\]
*561 proj_out\[37\]
*562 proj_out\[38\]
*563 proj_out\[39\]
*564 proj_out\[3\]
*565 proj_out\[40\]
*566 proj_out\[41\]
*567 proj_out\[42\]
*568 proj_out\[43\]
*569 proj_out\[44\]
*570 proj_out\[45\]
*571 proj_out\[46\]
*572 proj_out\[47\]
*573 proj_out\[4\]
*574 proj_out\[5\]
*575 proj_out\[6\]
*576 proj_out\[7\]
*577 proj_out\[8\]
*578 proj_out\[9\]
*579 proj_rst_n\[0\]
*580 proj_rst_n\[1\]
*581 proj_rst_n\[2\]
*582 proj_rst_n\[3\]
*583 rst_n
*584 sel\[0\]
*585 sel\[1\]
*586 im
*587 mw
*588 om
*589 p0
*590 p1
*591 p2
*592 p3

*PORTS
io_in[0] I
io_in[10] I
io_in[11] I
io_in[12] I
io_in[13] I
io_in[14] I
io_in[15] I
io_in[16] I
io_in[17] I
io_in[18] I
io_in[19] I
io_in[1] I
io_in[20] I
io_in[21] I
io_in[22] I
io_in[23] I
io_in[24] I
io_in[25] I
io_in[26] I
io_in[27] I
io_in[28] I
io_in[29] I
io_in[2] I
io_in[30] I
io_in[31] I
io_in[32] I
io_in[33] I
io_in[34] I
io_in[35] I
io_in[36] I
io_in[37] I
io_in[3] I
io_in[4] I
io_in[5] I
io_in[6] I
io_in[7] I
io_in[8] I
io_in[9] I
io_oeb[0] O
io_oeb[10] O
io_oeb[11] O
io_oeb[12] O
io_oeb[13] O
io_oeb[14] O
io_oeb[15] O
io_oeb[16] O
io_oeb[17] O
io_oeb[18] O
io_oeb[19] O
io_oeb[1] O
io_oeb[20] O
io_oeb[21] O
io_oeb[22] O
io_oeb[23] O
io_oeb[24] O
io_oeb[25] O
io_oeb[26] O
io_oeb[27] O
io_oeb[28] O
io_oeb[29] O
io_oeb[2] O
io_oeb[30] O
io_oeb[31] O
io_oeb[32] O
io_oeb[33] O
io_oeb[34] O
io_oeb[35] O
io_oeb[36] O
io_oeb[37] O
io_oeb[3] O
io_oeb[4] O
io_oeb[5] O
io_oeb[6] O
io_oeb[7] O
io_oeb[8] O
io_oeb[9] O
io_out[0] O
io_out[10] O
io_out[11] O
io_out[12] O
io_out[13] O
io_out[14] O
io_out[15] O
io_out[16] O
io_out[17] O
io_out[18] O
io_out[19] O
io_out[1] O
io_out[20] O
io_out[21] O
io_out[22] O
io_out[23] O
io_out[24] O
io_out[25] O
io_out[26] O
io_out[27] O
io_out[28] O
io_out[29] O
io_out[2] O
io_out[30] O
io_out[31] O
io_out[32] O
io_out[33] O
io_out[34] O
io_out[35] O
io_out[36] O
io_out[37] O
io_out[3] O
io_out[4] O
io_out[5] O
io_out[6] O
io_out[7] O
io_out[8] O
io_out[9] O
la_data_in[0] I
la_data_in[10] I
la_data_in[11] I
la_data_in[12] I
la_data_in[13] I
la_data_in[14] I
la_data_in[15] I
la_data_in[16] I
la_data_in[17] I
la_data_in[18] I
la_data_in[19] I
la_data_in[1] I
la_data_in[20] I
la_data_in[21] I
la_data_in[22] I
la_data_in[23] I
la_data_in[24] I
la_data_in[25] I
la_data_in[26] I
la_data_in[27] I
la_data_in[28] I
la_data_in[29] I
la_data_in[2] I
la_data_in[30] I
la_data_in[31] I
la_data_in[32] I
la_data_in[33] I
la_data_in[34] I
la_data_in[35] I
la_data_in[36] I
la_data_in[37] I
la_data_in[38] I
la_data_in[39] I
la_data_in[3] I
la_data_in[40] I
la_data_in[41] I
la_data_in[42] I
la_data_in[43] I
la_data_in[44] I
la_data_in[45] I
la_data_in[46] I
la_data_in[47] I
la_data_in[48] I
la_data_in[49] I
la_data_in[4] I
la_data_in[50] I
la_data_in[51] I
la_data_in[52] I
la_data_in[53] I
la_data_in[54] I
la_data_in[55] I
la_data_in[56] I
la_data_in[57] I
la_data_in[58] I
la_data_in[59] I
la_data_in[5] I
la_data_in[60] I
la_data_in[61] I
la_data_in[62] I
la_data_in[63] I
la_data_in[6] I
la_data_in[7] I
la_data_in[8] I
la_data_in[9] I
la_data_out[0] O
la_data_out[10] O
la_data_out[11] O
la_data_out[12] O
la_data_out[13] O
la_data_out[14] O
la_data_out[15] O
la_data_out[16] O
la_data_out[17] O
la_data_out[18] O
la_data_out[19] O
la_data_out[1] O
la_data_out[20] O
la_data_out[21] O
la_data_out[22] O
la_data_out[23] O
la_data_out[24] O
la_data_out[25] O
la_data_out[26] O
la_data_out[27] O
la_data_out[28] O
la_data_out[29] O
la_data_out[2] O
la_data_out[30] O
la_data_out[31] O
la_data_out[32] O
la_data_out[33] O
la_data_out[34] O
la_data_out[35] O
la_data_out[36] O
la_data_out[37] O
la_data_out[38] O
la_data_out[39] O
la_data_out[3] O
la_data_out[40] O
la_data_out[41] O
la_data_out[42] O
la_data_out[43] O
la_data_out[44] O
la_data_out[45] O
la_data_out[46] O
la_data_out[47] O
la_data_out[48] O
la_data_out[49] O
la_data_out[4] O
la_data_out[50] O
la_data_out[51] O
la_data_out[52] O
la_data_out[53] O
la_data_out[54] O
la_data_out[55] O
la_data_out[56] O
la_data_out[57] O
la_data_out[58] O
la_data_out[59] O
la_data_out[5] O
la_data_out[60] O
la_data_out[61] O
la_data_out[62] O
la_data_out[63] O
la_data_out[6] O
la_data_out[7] O
la_data_out[8] O
la_data_out[9] O
la_oenb[0] I
la_oenb[10] I
la_oenb[11] I
la_oenb[12] I
la_oenb[13] I
la_oenb[14] I
la_oenb[15] I
la_oenb[16] I
la_oenb[17] I
la_oenb[18] I
la_oenb[19] I
la_oenb[1] I
la_oenb[20] I
la_oenb[21] I
la_oenb[22] I
la_oenb[23] I
la_oenb[24] I
la_oenb[25] I
la_oenb[26] I
la_oenb[27] I
la_oenb[28] I
la_oenb[29] I
la_oenb[2] I
la_oenb[30] I
la_oenb[31] I
la_oenb[32] I
la_oenb[33] I
la_oenb[34] I
la_oenb[35] I
la_oenb[36] I
la_oenb[37] I
la_oenb[38] I
la_oenb[39] I
la_oenb[3] I
la_oenb[40] I
la_oenb[41] I
la_oenb[42] I
la_oenb[43] I
la_oenb[44] I
la_oenb[45] I
la_oenb[46] I
la_oenb[47] I
la_oenb[48] I
la_oenb[49] I
la_oenb[4] I
la_oenb[50] I
la_oenb[51] I
la_oenb[52] I
la_oenb[53] I
la_oenb[54] I
la_oenb[55] I
la_oenb[56] I
la_oenb[57] I
la_oenb[58] I
la_oenb[59] I
la_oenb[5] I
la_oenb[60] I
la_oenb[61] I
la_oenb[62] I
la_oenb[63] I
la_oenb[6] I
la_oenb[7] I
la_oenb[8] I
la_oenb[9] I
user_clock2 I
user_irq[0] O
user_irq[1] O
user_irq[2] O
wb_clk_i I
wb_rst_i I
wbs_ack_o O
wbs_adr_i[0] I
wbs_adr_i[10] I
wbs_adr_i[11] I
wbs_adr_i[12] I
wbs_adr_i[13] I
wbs_adr_i[14] I
wbs_adr_i[15] I
wbs_adr_i[16] I
wbs_adr_i[17] I
wbs_adr_i[18] I
wbs_adr_i[19] I
wbs_adr_i[1] I
wbs_adr_i[20] I
wbs_adr_i[21] I
wbs_adr_i[22] I
wbs_adr_i[23] I
wbs_adr_i[24] I
wbs_adr_i[25] I
wbs_adr_i[26] I
wbs_adr_i[27] I
wbs_adr_i[28] I
wbs_adr_i[29] I
wbs_adr_i[2] I
wbs_adr_i[30] I
wbs_adr_i[31] I
wbs_adr_i[3] I
wbs_adr_i[4] I
wbs_adr_i[5] I
wbs_adr_i[6] I
wbs_adr_i[7] I
wbs_adr_i[8] I
wbs_adr_i[9] I
wbs_cyc_i I
wbs_dat_i[0] I
wbs_dat_i[10] I
wbs_dat_i[11] I
wbs_dat_i[12] I
wbs_dat_i[13] I
wbs_dat_i[14] I
wbs_dat_i[15] I
wbs_dat_i[16] I
wbs_dat_i[17] I
wbs_dat_i[18] I
wbs_dat_i[19] I
wbs_dat_i[1] I
wbs_dat_i[20] I
wbs_dat_i[21] I
wbs_dat_i[22] I
wbs_dat_i[23] I
wbs_dat_i[24] I
wbs_dat_i[25] I
wbs_dat_i[26] I
wbs_dat_i[27] I
wbs_dat_i[28] I
wbs_dat_i[29] I
wbs_dat_i[2] I
wbs_dat_i[30] I
wbs_dat_i[31] I
wbs_dat_i[3] I
wbs_dat_i[4] I
wbs_dat_i[5] I
wbs_dat_i[6] I
wbs_dat_i[7] I
wbs_dat_i[8] I
wbs_dat_i[9] I
wbs_dat_o[0] O
wbs_dat_o[10] O
wbs_dat_o[11] O
wbs_dat_o[12] O
wbs_dat_o[13] O
wbs_dat_o[14] O
wbs_dat_o[15] O
wbs_dat_o[16] O
wbs_dat_o[17] O
wbs_dat_o[18] O
wbs_dat_o[19] O
wbs_dat_o[1] O
wbs_dat_o[20] O
wbs_dat_o[21] O
wbs_dat_o[22] O
wbs_dat_o[23] O
wbs_dat_o[24] O
wbs_dat_o[25] O
wbs_dat_o[26] O
wbs_dat_o[27] O
wbs_dat_o[28] O
wbs_dat_o[29] O
wbs_dat_o[2] O
wbs_dat_o[30] O
wbs_dat_o[31] O
wbs_dat_o[3] O
wbs_dat_o[4] O
wbs_dat_o[5] O
wbs_dat_o[6] O
wbs_dat_o[7] O
wbs_dat_o[8] O
wbs_dat_o[9] O
wbs_sel_i[0] I
wbs_sel_i[1] I
wbs_sel_i[2] I
wbs_sel_i[3] I
wbs_stb_i I
wbs_we_i I

*D_NET *1 0.80813
*CONN
*P io_in[0] I
*I *587:io_in[0] I *D mux_wrapper
*CAP
1 io_in[0] 0.00699042
2 *587:io_in[0] 0.0195508
3 *1:15 0.0195508
4 *1:13 0.00360701
5 *1:11 0.00360701
6 *1:9 0.0313222
7 *1:7 0.0313222
8 *1:5 0.00699042
9 *587:io_in[0] *587:la_data_in[43] 0.00524879
10 *587:io_in[0] *587:la_data_in[6] 0.00524606
11 *1:9 *172:13 0.177488
12 *1:9 *299:5 0.0134155
13 *1:13 *12:13 0.249628
14 *1:13 *143:9 0.0122847
15 *1:13 *462:13 0.221879
*RES
1 io_in[0] *1:5 48.07 
2 *1:5 *1:7 4.5 
3 *1:7 *1:9 472.796 
4 *1:9 *1:11 4.5 
5 *1:11 *1:13 607.62 
6 *1:13 *1:15 4.5 
7 *1:15 *587:io_in[0] 163.742 
*END

*D_NET *2 0.428306
*CONN
*P io_in[10] I
*I *587:io_in[10] I *D mux_wrapper
*CAP
1 io_in[10] 0.0221143
2 *587:io_in[10] 0.000464279
3 *2:13 0.0374371
4 *2:11 0.0369728
5 *2:9 0.0132286
6 *2:7 0.0132286
7 *2:5 0.0221143
8 *587:io_in[10] *111:11 3.1135e-05
9 *587:io_in[10] *187:5 3.1135e-05
10 *2:13 io_oeb[26] 0.00131164
11 *2:13 *38:13 0.274486
12 *2:13 *433:13 0.00406696
13 *2:13 *585:13 0.00281906
*RES
1 io_in[10] *2:5 155.23 
2 *2:5 *2:7 4.5 
3 *2:7 *2:9 95.6704 
4 *2:9 *2:11 4.5 
5 *2:11 *2:13 227.486 
6 *2:13 *587:io_in[10] 16.3636 
*END

*D_NET *3 0.21302
*CONN
*P io_in[11] I
*I *587:io_in[11] I *D mux_wrapper
*CAP
1 io_in[11] 0.00178234
2 *587:io_in[11] 0.0852318
3 *3:11 0.0852318
4 *3:9 0.011055
5 *3:7 0.0128374
6 *587:io_in[11] *103:7 5.92561e-05
7 *587:io_in[11] *216:5 0.0113635
8 *587:io_in[11] *448:14 0.0054594
*RES
1 io_in[11] *3:7 16.09 
2 *3:7 *3:9 79.876 
3 *3:9 *3:11 4.5 
4 *3:11 *587:io_in[11] 634.182 
*END

*D_NET *4 0.48843
*CONN
*P io_in[12] I
*I *587:io_in[12] I *D mux_wrapper
*CAP
1 io_in[12] 0.0317234
2 *587:io_in[12] 0.000251071
3 *4:13 0.000968167
4 *4:11 0.000717096
5 *4:9 0.00857321
6 *4:7 0.00857321
7 *4:5 0.0317234
8 *587:io_in[12] *434:15 1.96054e-05
9 *4:5 *587:la_oenb[1] 0.0861272
10 *4:5 *588:proj_out[26] 0.00488406
11 *4:5 *450:9 0.0803014
12 *4:5 *550:14 0.00289628
13 *4:5 *563:17 0.015978
14 *4:5 *572:21 0.00124807
15 *4:5 *578:17 0.114782
16 *4:9 *429:9 0.000129457
17 *4:9 *584:16 0.0384572
18 *4:13 *61:15 0.00383834
19 *4:13 *74:9 0.0319563
20 *4:13 *76:17 0.0211325
21 *4:13 *316:17 0.00268498
22 *4:13 *445:13 0.00146457
*RES
1 io_in[12] *4:5 627.038 
2 *4:5 *4:7 4.5 
3 *4:7 *4:9 100.396 
4 *4:9 *4:11 4.5 
5 *4:11 *4:13 77.9 
6 *4:13 *587:io_in[12] 5.754 
*END

*D_NET *5 0.315156
*CONN
*P io_in[13] I
*I *587:io_in[13] I *D mux_wrapper
*CAP
1 io_in[13] 0.0759807
2 *587:io_in[13] 0
3 *5:17 0.000175008
4 *5:15 0.000229109
5 *5:9 0.00585437
6 *5:5 0.0817809
7 *5:5 *42:13 0
8 *5:5 *179:5 0.0920661
9 *5:9 *587:la_oenb[20] 0
10 *5:9 *587:la_oenb[27] 0
11 *5:9 *15:5 0.00373003
12 *5:15 *113:11 0.00215608
13 *5:15 *236:17 0.000106626
14 *5:15 *441:19 0.0016479
15 *5:15 *441:21 0.000239414
16 *5:17 *113:11 0.000108963
17 *5:17 *236:17 0.00078463
18 *5:17 *313:9 0.000798715
19 *5:17 *315:6 0.00345169
20 *5:17 *338:17 0.0011966
21 *5:17 *441:21 0.0254039
22 *5:17 *450:25 0.0194456
*RES
1 io_in[13] *5:5 643.15 
2 *5:5 *5:9 49.872 
3 *5:9 *5:15 9.972 
4 *5:15 *5:17 61.18 
5 *5:17 *587:io_in[13] 4.5 
*END

*D_NET *6 0.228125
*CONN
*P io_in[14] I
*I *587:io_in[14] I *D mux_wrapper
*CAP
1 io_in[14] 0.0012482
2 *587:io_in[14] 0.00339789
3 *6:17 0.0112525
4 *6:13 0.0951424
5 *6:11 0.0872878
6 *6:9 0.0059566
7 *6:7 0.0072048
8 *587:io_in[14] *420:7 0.000286719
9 *587:io_in[14] *436:5 0.000750903
10 *6:9 io_out[13] 0.0011036
11 *6:9 *76:21 0.00371274
12 *6:13 *440:13 0.00849095
13 *6:17 *206:13 0.00192998
14 *6:17 *430:13 0.000360232
*RES
1 io_in[14] *6:7 11.53 
2 *6:7 *6:9 45.98 
3 *6:9 *6:11 4.5 
4 *6:11 *6:13 615.676 
5 *6:13 *6:17 47.288 
6 *6:17 *587:io_in[14] 27.642 
*END

*D_NET *7 0.376012
*CONN
*P io_in[15] I
*I *587:io_in[15] I *D mux_wrapper
*CAP
1 io_in[15] 0.00636213
2 *587:io_in[15] 0.00071758
3 *7:13 0.00482957
4 *7:11 0.00411199
5 *7:9 0.0799272
6 *7:7 0.0862893
7 *587:io_in[15] *587:io_in[21] 0.000129212
8 *7:9 *87:13 0.146732
9 *7:13 *343:13 0.0276522
10 *7:13 *422:9 0.0192609
*RES
1 io_in[15] *7:7 48.01 
2 *7:7 *7:9 743.66 
3 *7:9 *7:11 4.5 
4 *7:11 *7:13 78.812 
5 *7:13 *587:io_in[15] 8.946 
*END

*D_NET *8 0.28943
*CONN
*P io_in[16] I
*I *587:io_in[16] I *D mux_wrapper
*CAP
1 io_in[16] 0.00505172
2 *587:io_in[16] 0.000292691
3 *8:13 0.0078643
4 *8:11 0.00757161
5 *8:9 0.0775655
6 *8:7 0.0826172
7 *587:io_in[16] *587:out[8] 5.72746e-05
8 *587:io_in[16] *391:7 5.97124e-05
9 *8:9 *14:9 0.0837352
10 *8:13 *587:io_in[18] 0.0131724
11 *8:13 *587:wbs_we_i 0
12 *8:13 *380:13 0
13 *8:13 *382:9 0.0112698
14 *8:13 *384:9 0.000172488
15 *8:13 *403:9 0
*RES
1 io_in[16] *8:7 38.89 
2 *8:7 *8:9 651.396 
3 *8:9 *8:11 4.5 
4 *8:11 *8:13 77.9 
5 *8:13 *587:io_in[16] 6.514 
*END

*D_NET *9 0.169089
*CONN
*P io_in[17] I
*I *587:io_in[17] I *D mux_wrapper
*CAP
1 io_in[17] 0.00442128
2 *587:io_in[17] 0.00135605
3 *9:13 0.00763879
4 *9:11 0.00628274
5 *9:9 0.062134
6 *9:7 0.0665553
7 *587:io_in[17] *208:7 0.000333941
8 *587:io_in[17] *223:5 0.000208004
9 *587:io_in[17] *440:13 0.00019748
10 *9:13 *419:9 0.00399879
11 *9:13 *445:9 0.0159628
*RES
1 io_in[17] *9:7 34.33 
2 *9:7 *9:9 441.636 
3 *9:9 *9:11 4.5 
4 *9:11 *9:13 63.308 
5 *9:13 *587:io_in[17] 14.114 
*END

*D_NET *10 0.226762
*CONN
*P io_in[18] I
*I *587:io_in[18] I *D mux_wrapper
*CAP
1 io_in[18] 0.00612379
2 *587:io_in[18] 0.00311966
3 *10:9 0.0540101
4 *10:7 0.0570142
5 *587:io_in[18] *587:wbs_we_i 0.000353908
6 *587:io_in[18] *231:7 6.25672e-05
7 *10:9 *13:17 0.092905
8 *8:13 *587:io_in[18] 0.0131724
*RES
1 io_in[18] *10:7 45.73 
2 *10:7 *10:9 471.884 
3 *10:9 *587:io_in[18] 44.834 
*END

*D_NET *11 0.236925
*CONN
*P io_in[19] I
*I *587:io_in[19] I *D mux_wrapper
*CAP
1 io_in[19] 0.000973086
2 *587:io_in[19] 0.000102874
3 *11:17 0.00283398
4 *11:15 0.00273111
5 *11:13 0.0244201
6 *11:11 0.0244201
7 *11:9 0.0129814
8 *11:7 0.0139545
9 *587:io_in[19] *221:5 1.63774e-05
10 *587:io_in[19] *222:13 1.36428e-05
11 *11:7 *85:9 9.88736e-06
12 *11:9 *13:11 0.0128386
13 *11:9 *46:14 0.00780681
14 *11:9 *84:17 0.0339236
15 *11:9 *89:9 0.0400708
16 *11:9 *90:9 0.00282138
17 *11:17 *15:9 0.0193705
18 *11:17 *52:17 0.0214818
19 *11:17 *84:9 0.0105352
20 *11:17 *96:10 0.00477803
21 *11:17 *449:13 0.000841048
*RES
1 io_in[19] *11:7 11.226 
2 *11:7 *11:9 216.524 
3 *11:9 *11:11 4.5 
4 *11:11 *11:13 156.332 
5 *11:13 *11:15 4.5 
6 *11:15 *11:17 101.46 
7 *11:17 *587:io_in[19] 5.146 
*END

*D_NET *12 0.555362
*CONN
*P io_in[1] I
*I *587:io_in[1] I *D mux_wrapper
*CAP
1 io_in[1] 0.00176189
2 *587:io_in[1] 0.0217518
3 *12:15 0.0217518
4 *12:13 0.0595243
5 *12:11 0.0595243
6 *12:9 0.0612613
7 *12:7 0.0630232
8 *587:io_in[1] *587:la_data_in[35] 0.00529539
9 *587:io_in[1] *587:la_data_in[51] 0.000103365
10 *12:13 *143:9 0.0117374
11 *12:13 *516:9 0
12 *1:13 *12:13 0.249628
*RES
1 io_in[1] *12:7 16.09 
2 *12:7 *12:9 418.532 
3 *12:9 *12:11 4.5 
4 *12:11 *12:13 731.652 
5 *12:13 *12:15 4.5 
6 *12:15 *587:io_in[1] 163.894 
*END

*D_NET *13 0.159211
*CONN
*P io_in[20] I
*I *587:io_in[20] I *D mux_wrapper
*CAP
1 io_in[20] 0.00315046
2 *587:io_in[20] 0.00213734
3 *13:17 0.0183427
4 *13:15 0.0214057
5 *13:11 0.00835085
6 *587:io_in[20] *206:7 7.69516e-05
7 *13:15 io_out[20] 3.72664e-06
8 *10:9 *13:17 0.092905
9 *11:9 *13:11 0.0128386
*RES
1 io_in[20] *13:11 46.506 
2 *13:11 *13:15 39.08 
3 *13:15 *13:17 224.58 
4 *13:17 *587:io_in[20] 17.458 
*END

*D_NET *14 0.193896
*CONN
*P io_in[21] I
*I *587:io_in[21] I *D mux_wrapper
*CAP
1 io_in[21] 0.00511954
2 *587:io_in[21] 0.00123146
3 *14:13 0.0028401
4 *14:11 0.00160864
5 *14:9 0.015333
6 *14:7 0.0204525
7 *587:io_in[21] *411:7 7.00215e-06
8 *14:13 *45:9 0.0346691
9 *14:13 *53:9 0.0276358
10 *14:13 *181:9 0.000465531
11 *14:13 *355:21 0.000668923
12 *587:io_in[15] *587:io_in[21] 0.000129212
13 *8:9 *14:9 0.0837352
*RES
1 io_in[21] *14:7 38.738 
2 *14:7 *14:9 207.252 
3 *14:9 *14:11 4.5 
4 *14:11 *14:13 87.172 
5 *14:13 *587:io_in[21] 11.53 
*END

*D_NET *15 0.0934802
*CONN
*P io_in[22] I
*I *587:io_in[22] I *D mux_wrapper
*CAP
1 io_in[22] 0.0242699
2 *587:io_in[22] 0.000120004
3 *15:9 0.000698917
4 *15:7 0.000578913
5 *15:5 0.0242699
6 *587:io_in[22] *221:5 1.8784e-05
7 *587:io_in[22] *431:7 2.15186e-05
8 *15:5 *261:13 2.05646e-05
9 *15:9 *84:9 0.0201294
10 *15:9 *96:10 0.000251789
11 *5:9 *15:5 0.00373003
12 *11:17 *15:9 0.0193705
*RES
1 io_in[22] *15:5 163.134 
2 *15:5 *15:7 4.5 
3 *15:7 *15:9 50.236 
4 *15:9 *587:io_in[22] 5.298 
*END

*D_NET *16 0.056323
*CONN
*P io_in[23] I
*I *587:io_in[23] I *D mux_wrapper
*CAP
1 io_in[23] 0.00137364
2 *587:io_in[23] 0.000861701
3 *16:13 0.0236401
4 *16:11 0.0241521
5 *587:io_in[23] *587:io_in[6] 2.90663e-05
6 *587:io_in[23] *94:9 0.00528538
7 *587:io_in[23] *96:10 0.000964261
8 *587:io_in[23] *427:5 1.6756e-05
9 *16:13 *587:wbs_adr_i[4] 0
10 *16:13 *320:13 0
11 *16:13 *320:19 0
*RES
1 io_in[23] *16:11 18.538 
2 *16:11 *16:13 157.548 
3 *16:13 *587:io_in[23] 23.25 
*END

*D_NET *17 0.047016
*CONN
*P io_in[24] I
*I *587:io_in[24] I *D mux_wrapper
*CAP
1 io_in[24] 0.016888
2 *587:io_in[24] 0.00658534
3 *17:5 0.0234733
4 *587:io_in[24] *76:15 6.93842e-05
*RES
1 io_in[24] *17:5 119.51 
2 *17:5 *587:io_in[24] 46.946 
*END

*D_NET *18 0.101086
*CONN
*P io_in[25] I
*I *587:io_in[25] I *D mux_wrapper
*CAP
1 io_in[25] 0.00146674
2 *587:io_in[25] 0
3 *18:13 0.00602033
4 *18:11 0.00602033
5 *18:9 0.00689841
6 *18:7 0.00836514
7 *18:9 *68:15 0.0377644
8 *18:9 *104:17 0.000112571
9 *18:13 *96:10 0.0206953
10 *18:13 *449:13 0.0137428
*RES
1 io_in[25] *18:7 14.418 
2 *18:7 *18:9 93.404 
3 *18:9 *18:11 4.5 
4 *18:11 *18:13 108.756 
5 *18:13 *587:io_in[25] 4.5 
*END

*D_NET *19 0.0640484
*CONN
*P io_in[26] I
*I *587:io_in[26] I *D mux_wrapper
*CAP
1 io_in[26] 0.00257451
2 *587:io_in[26] 0.000160275
3 *19:13 0.00356895
4 *19:11 0.00345332
5 *19:7 0.00261915
6 *587:io_in[26] *587:io_in[33] 2.90663e-05
7 *587:io_in[26] *587:la_data_in[34] 2.90663e-05
8 *19:11 *59:13 0.0149449
9 *19:11 *67:13 0.014952
10 *19:13 io_oeb[26] 0
11 *19:13 *94:9 0.018203
12 *19:13 *96:10 0.00351418
*RES
1 io_in[26] *19:7 21.258 
2 *19:7 *19:11 41.512 
3 *19:11 *19:13 50.844 
4 *19:13 *587:io_in[26] 5.602 
*END

*D_NET *20 0.0342046
*CONN
*P io_in[27] I
*I *587:io_in[27] I *D mux_wrapper
*CAP
1 io_in[27] 0.0137323
2 *587:io_in[27] 0.00296358
3 *20:5 0.0166958
4 *587:io_in[27] *587:io_in[29] 0.000661867
5 *587:io_in[27] *587:la_data_in[42] 0.000151018
*RES
1 io_in[27] *20:5 72.086 
2 *20:5 *587:io_in[27] 26.122 
*END

*D_NET *21 0.0571772
*CONN
*P io_in[28] I
*I *587:io_in[28] I *D mux_wrapper
*CAP
1 io_in[28] 0.0163426
2 *587:io_in[28] 0.00977552
3 *21:7 0.00977552
4 *21:5 0.0163426
5 *587:io_in[28] *587:la_data_in[21] 0.000102452
6 *587:io_in[28] *587:la_data_in[26] 9.82233e-05
7 *587:io_in[28] *130:13 0.00474031
*RES
1 io_in[28] *21:5 86.678 
2 *21:5 *21:7 4.5 
3 *21:7 *587:io_in[28] 79.078 
*END

*D_NET *22 0.0729431
*CONN
*P io_in[29] I
*I *587:io_in[29] I *D mux_wrapper
*CAP
1 io_in[29] 0.0120946
2 *587:io_in[29] 0.0178419
3 *22:7 0.0178419
4 *22:5 0.0120946
5 *587:io_in[29] *587:la_data_in[14] 0.00442298
6 *587:io_in[29] *317:13 0.00798514
7 *587:io_in[27] *587:io_in[29] 0.000661867
*RES
1 io_in[29] *22:5 72.998 
2 *22:5 *22:7 4.5 
3 *22:7 *587:io_in[29] 136.534 
*END

*D_NET *23 0.514086
*CONN
*P io_in[2] I
*I *587:io_in[2] I *D mux_wrapper
*CAP
1 io_in[2] 0.00242254
2 *587:io_in[2] 0.0211389
3 *23:15 0.0211389
4 *23:13 0.0686443
5 *23:11 0.0686443
6 *23:9 0.0501242
7 *23:7 0.0525468
8 *587:io_in[2] *587:la_data_in[16] 0.000117297
9 *587:io_in[2] *587:la_data_in[44] 0.00515612
10 *587:io_in[2] *320:13 0.0133482
11 *23:9 user_irq[2] 0.00869008
12 *23:13 *419:13 0.000545546
13 *23:13 *421:13 0.00413495
14 *23:13 *437:13 0
15 *23:13 *457:13 0.197434
16 *23:13 *513:19 0
*RES
1 io_in[2] *23:7 20.65 
2 *23:7 *23:9 369.588 
3 *23:9 *23:11 4.5 
4 *23:11 *23:13 715.236 
5 *23:13 *23:15 4.5 
6 *23:15 *587:io_in[2] 159.334 
*END

*D_NET *24 0.0801642
*CONN
*P io_in[30] I
*I *587:io_in[30] I *D mux_wrapper
*CAP
1 io_in[30] 0.0113918
2 *587:io_in[30] 0.0285417
3 *24:7 0.0285417
4 *24:5 0.0113918
5 *587:io_in[30] *587:io_in[33] 0.000173181
6 *587:io_in[30] *587:la_data_in[5] 0.000123929
*RES
1 io_in[30] *24:5 69.35 
2 *24:5 *24:7 4.5 
3 *24:7 *587:io_in[30] 193.99 
*END

*D_NET *25 0.281515
*CONN
*P io_in[31] I
*I *587:io_in[31] I *D mux_wrapper
*CAP
1 io_in[31] 0.00227091
2 *587:io_in[31] 0.00120711
3 *25:13 0.00758754
4 *25:11 0.00638043
5 *25:9 0.00182893
6 *25:7 0.00409984
7 *587:io_in[31] *587:la_data_in[43] 0.000237517
8 *587:io_in[31] *587:la_data_in[53] 0.000237517
9 *587:io_in[31] *345:25 0.000179102
10 *25:9 *60:16 0.067133
11 *25:9 *107:16 0.0981226
12 *25:9 *313:5 0.0101408
13 *25:13 *63:9 0.02754
14 *25:13 *100:10 0.0545501
*RES
1 io_in[31] *25:7 18.978 
2 *25:7 *25:9 242.516 
3 *25:9 *25:11 4.5 
4 *25:11 *25:13 136.116 
5 *25:13 *587:io_in[31] 13.202 
*END

*D_NET *26 0.262891
*CONN
*P io_in[32] I
*I *587:io_in[32] I *D mux_wrapper
*CAP
1 io_in[32] 0.00607538
2 *587:io_in[32] 0.000943407
3 *26:13 0.00634959
4 *26:11 0.00540618
5 *26:9 0.00322091
6 *26:7 0.00929629