*SPEF "ieee 1481-1999"
*DESIGN "user_project_wrapper"
*DATE "11:11:11 Fri 11 11, 1111"
*VENDOR "OpenRCX"
*PROGRAM "Parallel Extraction"
*VERSION "1.0"
*DESIGN_FLOW "NAME_SCOPE LOCAL" "PIN_CAP NONE"
*DIVIDER /
*DELIMITER :
*BUS_DELIMITER []
*T_UNIT 1 NS
*C_UNIT 1 PF
*R_UNIT 1 OHM
*L_UNIT 1 HENRY

*NAME_MAP
*1 io_in[0]
*2 io_in[10]
*3 io_in[11]
*4 io_in[12]
*5 io_in[13]
*6 io_in[14]
*7 io_in[15]
*8 io_in[16]
*9 io_in[17]
*10 io_in[18]
*11 io_in[19]
*12 io_in[1]
*13 io_in[20]
*14 io_in[21]
*15 io_in[22]
*16 io_in[23]
*17 io_in[24]
*18 io_in[25]
*19 io_in[26]
*20 io_in[27]
*21 io_in[28]
*22 io_in[29]
*23 io_in[2]
*24 io_in[30]
*25 io_in[31]
*26 io_in[32]
*27 io_in[33]
*28 io_in[34]
*29 io_in[35]
*30 io_in[36]
*31 io_in[37]
*32 io_in[3]
*33 io_in[4]
*34 io_in[5]
*35 io_in[6]
*36 io_in[7]
*37 io_in[8]
*38 io_in[9]
*39 io_oeb[0]
*40 io_oeb[10]
*41 io_oeb[11]
*42 io_oeb[12]
*43 io_oeb[13]
*44 io_oeb[14]
*45 io_oeb[15]
*46 io_oeb[16]
*47 io_oeb[17]
*48 io_oeb[18]
*49 io_oeb[19]
*50 io_oeb[1]
*51 io_oeb[20]
*52 io_oeb[21]
*53 io_oeb[22]
*54 io_oeb[23]
*55 io_oeb[24]
*56 io_oeb[25]
*57 io_oeb[26]
*58 io_oeb[27]
*59 io_oeb[28]
*60 io_oeb[29]
*61 io_oeb[2]
*62 io_oeb[30]
*63 io_oeb[31]
*64 io_oeb[32]
*65 io_oeb[33]
*66 io_oeb[34]
*67 io_oeb[35]
*68 io_oeb[36]
*69 io_oeb[37]
*70 io_oeb[3]
*71 io_oeb[4]
*72 io_oeb[5]
*73 io_oeb[6]
*74 io_oeb[7]
*75 io_oeb[8]
*76 io_oeb[9]
*77 io_out[0]
*78 io_out[10]
*79 io_out[11]
*80 io_out[12]
*81 io_out[13]
*82 io_out[14]
*83 io_out[15]
*84 io_out[16]
*85 io_out[17]
*86 io_out[18]
*87 io_out[19]
*88 io_out[1]
*89 io_out[20]
*90 io_out[21]
*91 io_out[22]
*92 io_out[23]
*93 io_out[24]
*94 io_out[25]
*95 io_out[26]
*96 io_out[27]
*97 io_out[28]
*98 io_out[29]
*99 io_out[2]
*100 io_out[30]
*101 io_out[31]
*102 io_out[32]
*103 io_out[33]
*104 io_out[34]
*105 io_out[35]
*106 io_out[36]
*107 io_out[37]
*108 io_out[3]
*109 io_out[4]
*110 io_out[5]
*111 io_out[6]
*112 io_out[7]
*113 io_out[8]
*114 io_out[9]
*115 la_data_in[0]
*116 la_data_in[10]
*117 la_data_in[11]
*118 la_data_in[12]
*119 la_data_in[13]
*120 la_data_in[14]
*121 la_data_in[15]
*122 la_data_in[16]
*123 la_data_in[17]
*124 la_data_in[18]
*125 la_data_in[19]
*126 la_data_in[1]
*127 la_data_in[20]
*128 la_data_in[21]
*129 la_data_in[22]
*130 la_data_in[23]
*131 la_data_in[24]
*132 la_data_in[25]
*133 la_data_in[26]
*134 la_data_in[27]
*135 la_data_in[28]
*136 la_data_in[29]
*137 la_data_in[2]
*138 la_data_in[30]
*139 la_data_in[31]
*140 la_data_in[32]
*141 la_data_in[33]
*142 la_data_in[34]
*143 la_data_in[35]
*144 la_data_in[36]
*145 la_data_in[37]
*146 la_data_in[38]
*147 la_data_in[39]
*148 la_data_in[3]
*149 la_data_in[40]
*150 la_data_in[41]
*151 la_data_in[42]
*152 la_data_in[43]
*153 la_data_in[44]
*154 la_data_in[45]
*155 la_data_in[46]
*156 la_data_in[47]
*157 la_data_in[48]
*158 la_data_in[49]
*159 la_data_in[4]
*160 la_data_in[50]
*161 la_data_in[51]
*162 la_data_in[52]
*163 la_data_in[53]
*164 la_data_in[54]
*165 la_data_in[55]
*166 la_data_in[56]
*167 la_data_in[57]
*168 la_data_in[58]
*169 la_data_in[59]
*170 la_data_in[5]
*171 la_data_in[60]
*172 la_data_in[61]
*173 la_data_in[62]
*174 la_data_in[63]
*175 la_data_in[6]
*176 la_data_in[7]
*177 la_data_in[8]
*178 la_data_in[9]
*179 la_data_out[0]
*180 la_data_out[10]
*181 la_data_out[11]
*182 la_data_out[12]
*183 la_data_out[13]
*184 la_data_out[14]
*185 la_data_out[15]
*186 la_data_out[16]
*187 la_data_out[17]
*188 la_data_out[18]
*189 la_data_out[19]
*190 la_data_out[1]
*191 la_data_out[20]
*192 la_data_out[21]
*193 la_data_out[22]
*194 la_data_out[23]
*195 la_data_out[24]
*196 la_data_out[25]
*197 la_data_out[26]
*198 la_data_out[27]
*199 la_data_out[28]
*200 la_data_out[29]
*201 la_data_out[2]
*202 la_data_out[30]
*203 la_data_out[31]
*204 la_data_out[32]
*205 la_data_out[33]
*206 la_data_out[34]
*207 la_data_out[35]
*208 la_data_out[36]
*209 la_data_out[37]
*210 la_data_out[38]
*211 la_data_out[39]
*212 la_data_out[3]
*213 la_data_out[40]
*214 la_data_out[41]
*215 la_data_out[42]
*216 la_data_out[43]
*217 la_data_out[44]
*218 la_data_out[45]
*219 la_data_out[46]
*220 la_data_out[47]
*221 la_data_out[48]
*222 la_data_out[49]
*223 la_data_out[4]
*224 la_data_out[50]
*225 la_data_out[51]
*226 la_data_out[52]
*227 la_data_out[53]
*228 la_data_out[54]
*229 la_data_out[55]
*230 la_data_out[56]
*231 la_data_out[57]
*232 la_data_out[58]
*233 la_data_out[59]
*234 la_data_out[5]
*235 la_data_out[60]
*236 la_data_out[61]
*237 la_data_out[62]
*238 la_data_out[63]
*239 la_data_out[6]
*240 la_data_out[7]
*241 la_data_out[8]
*242 la_data_out[9]
*243 la_oenb[0]
*244 la_oenb[10]
*245 la_oenb[11]
*246 la_oenb[12]
*247 la_oenb[13]
*248 la_oenb[14]
*249 la_oenb[15]
*250 la_oenb[16]
*251 la_oenb[17]
*252 la_oenb[18]
*253 la_oenb[19]
*254 la_oenb[1]
*255 la_oenb[20]
*256 la_oenb[21]
*257 la_oenb[22]
*258 la_oenb[23]
*259 la_oenb[24]
*260 la_oenb[25]
*261 la_oenb[26]
*262 la_oenb[27]
*263 la_oenb[28]
*264 la_oenb[29]
*265 la_oenb[2]
*266 la_oenb[30]
*267 la_oenb[31]
*268 la_oenb[32]
*269 la_oenb[33]
*270 la_oenb[34]
*271 la_oenb[35]
*272 la_oenb[36]
*273 la_oenb[37]
*274 la_oenb[38]
*275 la_oenb[39]
*276 la_oenb[3]
*277 la_oenb[40]
*278 la_oenb[41]
*279 la_oenb[42]
*280 la_oenb[43]
*281 la_oenb[44]
*282 la_oenb[45]
*283 la_oenb[46]
*284 la_oenb[47]
*285 la_oenb[48]
*286 la_oenb[49]
*287 la_oenb[4]
*288 la_oenb[50]
*289 la_oenb[51]
*290 la_oenb[52]
*291 la_oenb[53]
*292 la_oenb[54]
*293 la_oenb[55]
*294 la_oenb[56]
*295 la_oenb[57]
*296 la_oenb[58]
*297 la_oenb[59]
*298 la_oenb[5]
*299 la_oenb[60]
*300 la_oenb[61]
*301 la_oenb[62]
*302 la_oenb[63]
*303 la_oenb[6]
*304 la_oenb[7]
*305 la_oenb[8]
*306 la_oenb[9]
*307 user_clock2
*308 user_irq[0]
*309 user_irq[1]
*310 user_irq[2]
*313 wb_clk_i
*314 wb_rst_i
*315 wbs_ack_o
*316 wbs_adr_i[0]
*317 wbs_adr_i[10]
*318 wbs_adr_i[11]
*319 wbs_adr_i[12]
*320 wbs_adr_i[13]
*321 wbs_adr_i[14]
*322 wbs_adr_i[15]
*323 wbs_adr_i[16]
*324 wbs_adr_i[17]
*325 wbs_adr_i[18]
*326 wbs_adr_i[19]
*327 wbs_adr_i[1]
*328 wbs_adr_i[20]
*329 wbs_adr_i[21]
*330 wbs_adr_i[22]
*331 wbs_adr_i[23]
*332 wbs_adr_i[24]
*333 wbs_adr_i[25]
*334 wbs_adr_i[26]
*335 wbs_adr_i[27]
*336 wbs_adr_i[28]
*337 wbs_adr_i[29]
*338 wbs_adr_i[2]
*339 wbs_adr_i[30]
*340 wbs_adr_i[31]
*341 wbs_adr_i[3]
*342 wbs_adr_i[4]
*343 wbs_adr_i[5]
*344 wbs_adr_i[6]
*345 wbs_adr_i[7]
*346 wbs_adr_i[8]
*347 wbs_adr_i[9]
*348 wbs_cyc_i
*349 wbs_dat_i[0]
*350 wbs_dat_i[10]
*351 wbs_dat_i[11]
*352 wbs_dat_i[12]
*353 wbs_dat_i[13]
*354 wbs_dat_i[14]
*355 wbs_dat_i[15]
*356 wbs_dat_i[16]
*357 wbs_dat_i[17]
*358 wbs_dat_i[18]
*359 wbs_dat_i[19]
*360 wbs_dat_i[1]
*361 wbs_dat_i[20]
*362 wbs_dat_i[21]
*363 wbs_dat_i[22]
*364 wbs_dat_i[23]
*365 wbs_dat_i[24]
*366 wbs_dat_i[25]
*367 wbs_dat_i[26]
*368 wbs_dat_i[27]
*369 wbs_dat_i[28]
*370 wbs_dat_i[29]
*371 wbs_dat_i[2]
*372 wbs_dat_i[30]
*373 wbs_dat_i[31]
*374 wbs_dat_i[3]
*375 wbs_dat_i[4]
*376 wbs_dat_i[5]
*377 wbs_dat_i[6]
*378 wbs_dat_i[7]
*379 wbs_dat_i[8]
*380 wbs_dat_i[9]
*381 wbs_dat_o[0]
*382 wbs_dat_o[10]
*383 wbs_dat_o[11]
*384 wbs_dat_o[12]
*385 wbs_dat_o[13]
*386 wbs_dat_o[14]
*387 wbs_dat_o[15]
*388 wbs_dat_o[16]
*389 wbs_dat_o[17]
*390 wbs_dat_o[18]
*391 wbs_dat_o[19]
*392 wbs_dat_o[1]
*393 wbs_dat_o[20]
*394 wbs_dat_o[21]
*395 wbs_dat_o[22]
*396 wbs_dat_o[23]
*397 wbs_dat_o[24]
*398 wbs_dat_o[25]
*399 wbs_dat_o[26]
*400 wbs_dat_o[27]
*401 wbs_dat_o[28]
*402 wbs_dat_o[29]
*403 wbs_dat_o[2]
*404 wbs_dat_o[30]
*405 wbs_dat_o[31]
*406 wbs_dat_o[3]
*407 wbs_dat_o[4]
*408 wbs_dat_o[5]
*409 wbs_dat_o[6]
*410 wbs_dat_o[7]
*411 wbs_dat_o[8]
*412 wbs_dat_o[9]
*413 wbs_sel_i[0]
*414 wbs_sel_i[1]
*415 wbs_sel_i[2]
*416 wbs_sel_i[3]
*417 wbs_stb_i
*418 wbs_we_i
*419 clk
*420 in\[0\]
*421 in\[10\]
*422 in\[11\]
*423 in\[12\]
*424 in\[13\]
*425 in\[14\]
*426 in\[15\]
*427 in\[16\]
*428 in\[17\]
*429 in\[1\]
*430 in\[2\]
*431 in\[3\]
*432 in\[4\]
*433 in\[5\]
*434 in\[6\]
*435 in\[7\]
*436 in\[8\]
*437 in\[9\]
*438 out\[0\]
*439 out\[10\]
*440 out\[11\]
*441 out\[1\]
*442 out\[2\]
*443 out\[3\]
*444 out\[4\]
*445 out\[5\]
*446 out\[6\]
*447 out\[7\]
*448 out\[8\]
*449 out\[9\]
*450 proj_clk\[0\]
*451 proj_clk\[1\]
*452 proj_clk\[2\]
*453 proj_clk\[3\]
*454 proj_clk\[4\]
*455 proj_clk\[5\]
*456 proj_clk\[6\]
*457 proj_clk\[7\]
*458 proj_in\[0\]
*459 proj_in\[100\]
*460 proj_in\[101\]
*461 proj_in\[102\]
*462 proj_in\[103\]
*463 proj_in\[104\]
*464 proj_in\[105\]
*465 proj_in\[106\]
*466 proj_in\[107\]
*467 proj_in\[108\]
*468 proj_in\[109\]
*469 proj_in\[10\]
*470 proj_in\[110\]
*471 proj_in\[111\]
*472 proj_in\[112\]
*473 proj_in\[113\]
*474 proj_in\[114\]
*475 proj_in\[115\]
*476 proj_in\[116\]
*477 proj_in\[117\]
*478 proj_in\[118\]
*479 proj_in\[119\]
*480 proj_in\[11\]
*481 proj_in\[120\]
*482 proj_in\[121\]
*483 proj_in\[122\]
*484 proj_in\[123\]
*485 proj_in\[124\]
*486 proj_in\[125\]
*487 proj_in\[126\]
*488 proj_in\[127\]
*489 proj_in\[128\]
*490 proj_in\[129\]
*491 proj_in\[12\]
*492 proj_in\[130\]
*493 proj_in\[131\]
*494 proj_in\[132\]
*495 proj_in\[133\]
*496 proj_in\[134\]
*497 proj_in\[135\]
*498 proj_in\[136\]
*499 proj_in\[137\]
*500 proj_in\[138\]
*501 proj_in\[139\]
*502 proj_in\[13\]
*503 proj_in\[140\]
*504 proj_in\[141\]
*505 proj_in\[142\]
*506 proj_in\[143\]
*507 proj_in\[14\]
*508 proj_in\[15\]
*509 proj_in\[16\]
*510 proj_in\[17\]
*511 proj_in\[18\]
*512 proj_in\[19\]
*513 proj_in\[1\]
*514 proj_in\[20\]
*515 proj_in\[21\]
*516 proj_in\[22\]
*517 proj_in\[23\]
*518 proj_in\[24\]
*519 proj_in\[25\]
*520 proj_in\[26\]
*521 proj_in\[27\]
*522 proj_in\[28\]
*523 proj_in\[29\]
*524 proj_in\[2\]
*525 proj_in\[30\]
*526 proj_in\[31\]
*527 proj_in\[32\]
*528 proj_in\[33\]
*529 proj_in\[34\]
*530 proj_in\[35\]
*531 proj_in\[36\]
*532 proj_in\[37\]
*533 proj_in\[38\]
*534 proj_in\[39\]
*535 proj_in\[3\]
*536 proj_in\[40\]
*537 proj_in\[41\]
*538 proj_in\[42\]
*539 proj_in\[43\]
*540 proj_in\[44\]
*541 proj_in\[45\]
*542 proj_in\[46\]
*543 proj_in\[47\]
*544 proj_in\[48\]
*545 proj_in\[49\]
*546 proj_in\[4\]
*547 proj_in\[50\]
*548 proj_in\[51\]
*549 proj_in\[52\]
*550 proj_in\[53\]
*551 proj_in\[54\]
*552 proj_in\[55\]
*553 proj_in\[56\]
*554 proj_in\[57\]
*555 proj_in\[58\]
*556 proj_in\[59\]
*557 proj_in\[5\]
*558 proj_in\[60\]
*559 proj_in\[61\]
*560 proj_in\[62\]
*561 proj_in\[63\]
*562 proj_in\[64\]
*563 proj_in\[65\]
*564 proj_in\[66\]
*565 proj_in\[67\]
*566 proj_in\[68\]
*567 proj_in\[69\]
*568 proj_in\[6\]
*569 proj_in\[70\]
*570 proj_in\[71\]
*571 proj_in\[72\]
*572 proj_in\[73\]
*573 proj_in\[74\]
*574 proj_in\[75\]
*575 proj_in\[76\]
*576 proj_in\[77\]
*577 proj_in\[78\]
*578 proj_in\[79\]
*579 proj_in\[7\]
*580 proj_in\[80\]
*581 proj_in\[81\]
*582 proj_in\[82\]
*583 proj_in\[83\]
*584 proj_in\[84\]
*585 proj_in\[85\]
*586 proj_in\[86\]
*587 proj_in\[87\]
*588 proj_in\[88\]
*589 proj_in\[89\]
*590 proj_in\[8\]
*591 proj_in\[90\]
*592 proj_in\[91\]
*593 proj_in\[92\]
*594 proj_in\[93\]
*595 proj_in\[94\]
*596 proj_in\[95\]
*597 proj_in\[96\]
*598 proj_in\[97\]
*599 proj_in\[98\]
*600 proj_in\[99\]
*601 proj_in\[9\]
*602 proj_out\[0\]
*603 proj_out\[10\]
*604 proj_out\[11\]
*605 proj_out\[12\]
*606 proj_out\[13\]
*607 proj_out\[14\]
*608 proj_out\[15\]
*609 proj_out\[16\]
*610 proj_out\[17\]
*611 proj_out\[18\]
*612 proj_out\[19\]
*613 proj_out\[1\]
*614 proj_out\[20\]
*615 proj_out\[21\]
*616 proj_out\[22\]
*617 proj_out\[23\]
*618 proj_out\[24\]
*619 proj_out\[25\]
*620 proj_out\[26\]
*621 proj_out\[27\]
*622 proj_out\[28\]
*623 proj_out\[29\]
*624 proj_out\[2\]
*625 proj_out\[30\]
*626 proj_out\[31\]
*627 proj_out\[32\]
*628 proj_out\[33\]
*629 proj_out\[34\]
*630 proj_out\[35\]
*631 proj_out\[36\]
*632 proj_out\[37\]
*633 proj_out\[38\]
*634 proj_out\[39\]
*635 proj_out\[3\]
*636 proj_out\[40\]
*637 proj_out\[41\]
*638 proj_out\[42\]
*639 proj_out\[43\]
*640 proj_out\[44\]
*641 proj_out\[45\]
*642 proj_out\[46\]
*643 proj_out\[47\]
*644 proj_out\[48\]
*645 proj_out\[49\]
*646 proj_out\[4\]
*647 proj_out\[50\]
*648 proj_out\[51\]
*649 proj_out\[52\]
*650 proj_out\[53\]
*651 proj_out\[54\]
*652 proj_out\[55\]
*653 proj_out\[56\]
*654 proj_out\[57\]
*655 proj_out\[58\]
*656 proj_out\[59\]
*657 proj_out\[5\]
*658 proj_out\[60\]
*659 proj_out\[61\]
*660 proj_out\[62\]
*661 proj_out\[63\]
*662 proj_out\[64\]
*663 proj_out\[65\]
*664 proj_out\[66\]
*665 proj_out\[67\]
*666 proj_out\[68\]
*667 proj_out\[69\]
*668 proj_out\[6\]
*669 proj_out\[70\]
*670 proj_out\[71\]
*671 proj_out\[72\]
*672 proj_out\[73\]
*673 proj_out\[74\]
*674 proj_out\[75\]
*675 proj_out\[76\]
*676 proj_out\[77\]
*677 proj_out\[78\]
*678 proj_out\[79\]
*679 proj_out\[7\]
*680 proj_out\[80\]
*681 proj_out\[81\]
*682 proj_out\[82\]
*683 proj_out\[83\]
*684 proj_out\[84\]
*685 proj_out\[85\]
*686 proj_out\[86\]
*687 proj_out\[87\]
*688 proj_out\[88\]
*689 proj_out\[89\]
*690 proj_out\[8\]
*691 proj_out\[90\]
*692 proj_out\[91\]
*693 proj_out\[92\]
*694 proj_out\[93\]
*695 proj_out\[94\]
*696 proj_out\[95\]
*697 proj_out\[9\]
*698 proj_rst_n\[0\]
*699 proj_rst_n\[1\]
*700 proj_rst_n\[2\]
*701 proj_rst_n\[3\]
*702 proj_rst_n\[4\]
*703 proj_rst_n\[5\]
*704 proj_rst_n\[6\]
*705 proj_rst_n\[7\]
*706 rst_n
*707 sel\[0\]
*708 sel\[1\]
*709 sel\[2\]
*710 ci
*711 im
*712 om
*713 p0
*714 p1
*715 p2
*716 p3
*717 p4
*718 p5
*719 p6
*720 p7

*PORTS
io_in[0] I
io_in[10] I
io_in[11] I
io_in[12] I
io_in[13] I
io_in[14] I
io_in[15] I
io_in[16] I
io_in[17] I
io_in[18] I
io_in[19] I
io_in[1] I
io_in[20] I
io_in[21] I
io_in[22] I
io_in[23] I
io_in[24] I
io_in[25] I
io_in[26] I
io_in[27] I
io_in[28] I
io_in[29] I
io_in[2] I
io_in[30] I
io_in[31] I
io_in[32] I
io_in[33] I
io_in[34] I
io_in[35] I
io_in[36] I
io_in[37] I
io_in[3] I
io_in[4] I
io_in[5] I
io_in[6] I
io_in[7] I
io_in[8] I
io_in[9] I
io_oeb[0] O
io_oeb[10] O
io_oeb[11] O
io_oeb[12] O
io_oeb[13] O
io_oeb[14] O
io_oeb[15] O
io_oeb[16] O
io_oeb[17] O
io_oeb[18] O
io_oeb[19] O
io_oeb[1] O
io_oeb[20] O
io_oeb[21] O
io_oeb[22] O
io_oeb[23] O
io_oeb[24] O
io_oeb[25] O
io_oeb[26] O
io_oeb[27] O
io_oeb[28] O
io_oeb[29] O
io_oeb[2] O
io_oeb[30] O
io_oeb[31] O
io_oeb[32] O
io_oeb[33] O
io_oeb[34] O
io_oeb[35] O
io_oeb[36] O
io_oeb[37] O
io_oeb[3] O
io_oeb[4] O
io_oeb[5] O
io_oeb[6] O
io_oeb[7] O
io_oeb[8] O
io_oeb[9] O
io_out[0] O
io_out[10] O
io_out[11] O
io_out[12] O
io_out[13] O
io_out[14] O
io_out[15] O
io_out[16] O
io_out[17] O
io_out[18] O
io_out[19] O
io_out[1] O
io_out[20] O
io_out[21] O
io_out[22] O
io_out[23] O
io_out[24] O
io_out[25] O
io_out[26] O
io_out[27] O
io_out[28] O
io_out[29] O
io_out[2] O
io_out[30] O
io_out[31] O
io_out[32] O
io_out[33] O
io_out[34] O
io_out[35] O
io_out[36] O
io_out[37] O
io_out[3] O
io_out[4] O
io_out[5] O
io_out[6] O
io_out[7] O
io_out[8] O
io_out[9] O
la_data_in[0] I
la_data_in[10] I
la_data_in[11] I
la_data_in[12] I
la_data_in[13] I
la_data_in[14] I
la_data_in[15] I
la_data_in[16] I
la_data_in[17] I
la_data_in[18] I
la_data_in[19] I
la_data_in[1] I
la_data_in[20] I
la_data_in[21] I
la_data_in[22] I
la_data_in[23] I
la_data_in[24] I
la_data_in[25] I
la_data_in[26] I
la_data_in[27] I
la_data_in[28] I
la_data_in[29] I
la_data_in[2] I
la_data_in[30] I
la_data_in[31] I
la_data_in[32] I
la_data_in[33] I
la_data_in[34] I
la_data_in[35] I
la_data_in[36] I
la_data_in[37] I
la_data_in[38] I
la_data_in[39] I
la_data_in[3] I
la_data_in[40] I
la_data_in[41] I
la_data_in[42] I
la_data_in[43] I
la_data_in[44] I
la_data_in[45] I
la_data_in[46] I
la_data_in[47] I
la_data_in[48] I
la_data_in[49] I
la_data_in[4] I
la_data_in[50] I
la_data_in[51] I
la_data_in[52] I
la_data_in[53] I
la_data_in[54] I
la_data_in[55] I
la_data_in[56] I
la_data_in[57] I
la_data_in[58] I
la_data_in[59] I
la_data_in[5] I
la_data_in[60] I
la_data_in[61] I
la_data_in[62] I
la_data_in[63] I
la_data_in[6] I
la_data_in[7] I
la_data_in[8] I
la_data_in[9] I
la_data_out[0] O
la_data_out[10] O
la_data_out[11] O
la_data_out[12] O
la_data_out[13] O
la_data_out[14] O
la_data_out[15] O
la_data_out[16] O
la_data_out[17] O
la_data_out[18] O
la_data_out[19] O
la_data_out[1] O
la_data_out[20] O
la_data_out[21] O
la_data_out[22] O
la_data_out[23] O
la_data_out[24] O
la_data_out[25] O
la_data_out[26] O
la_data_out[27] O
la_data_out[28] O
la_data_out[29] O
la_data_out[2] O
la_data_out[30] O
la_data_out[31] O
la_data_out[32] O
la_data_out[33] O
la_data_out[34] O
la_data_out[35] O
la_data_out[36] O
la_data_out[37] O
la_data_out[38] O
la_data_out[39] O
la_data_out[3] O
la_data_out[40] O
la_data_out[41] O
la_data_out[42] O
la_data_out[43] O
la_data_out[44] O
la_data_out[45] O
la_data_out[46] O
la_data_out[47] O
la_data_out[48] O
la_data_out[49] O
la_data_out[4] O
la_data_out[50] O
la_data_out[51] O
la_data_out[52] O
la_data_out[53] O
la_data_out[54] O
la_data_out[55] O
la_data_out[56] O
la_data_out[57] O
la_data_out[58] O
la_data_out[59] O
la_data_out[5] O
la_data_out[60] O
la_data_out[61] O
la_data_out[62] O
la_data_out[63] O
la_data_out[6] O
la_data_out[7] O
la_data_out[8] O
la_data_out[9] O
la_oenb[0] I
la_oenb[10] I
la_oenb[11] I
la_oenb[12] I
la_oenb[13] I
la_oenb[14] I
la_oenb[15] I
la_oenb[16] I
la_oenb[17] I
la_oenb[18] I
la_oenb[19] I
la_oenb[1] I
la_oenb[20] I
la_oenb[21] I
la_oenb[22] I
la_oenb[23] I
la_oenb[24] I
la_oenb[25] I
la_oenb[26] I
la_oenb[27] I
la_oenb[28] I
la_oenb[29] I
la_oenb[2] I
la_oenb[30] I
la_oenb[31] I
la_oenb[32] I
la_oenb[33] I
la_oenb[34] I
la_oenb[35] I
la_oenb[36] I
la_oenb[37] I
la_oenb[38] I
la_oenb[39] I
la_oenb[3] I
la_oenb[40] I
la_oenb[41] I
la_oenb[42] I
la_oenb[43] I
la_oenb[44] I
la_oenb[45] I
la_oenb[46] I
la_oenb[47] I
la_oenb[48] I
la_oenb[49] I
la_oenb[4] I
la_oenb[50] I
la_oenb[51] I
la_oenb[52] I
la_oenb[53] I
la_oenb[54] I
la_oenb[55] I
la_oenb[56] I
la_oenb[57] I
la_oenb[58] I
la_oenb[59] I
la_oenb[5] I
la_oenb[60] I
la_oenb[61] I
la_oenb[62] I
la_oenb[63] I
la_oenb[6] I
la_oenb[7] I
la_oenb[8] I
la_oenb[9] I
user_clock2 I
user_irq[0] O
user_irq[1] O
user_irq[2] O
wb_clk_i I
wb_rst_i I
wbs_ack_o O
wbs_adr_i[0] I
wbs_adr_i[10] I
wbs_adr_i[11] I
wbs_adr_i[12] I
wbs_adr_i[13] I
wbs_adr_i[14] I
wbs_adr_i[15] I
wbs_adr_i[16] I
wbs_adr_i[17] I
wbs_adr_i[18] I
wbs_adr_i[19] I
wbs_adr_i[1] I
wbs_adr_i[20] I
wbs_adr_i[21] I
wbs_adr_i[22] I
wbs_adr_i[23] I
wbs_adr_i[24] I
wbs_adr_i[25] I
wbs_adr_i[26] I
wbs_adr_i[27] I
wbs_adr_i[28] I
wbs_adr_i[29] I
wbs_adr_i[2] I
wbs_adr_i[30] I
wbs_adr_i[31] I
wbs_adr_i[3] I
wbs_adr_i[4] I
wbs_adr_i[5] I
wbs_adr_i[6] I
wbs_adr_i[7] I
wbs_adr_i[8] I
wbs_adr_i[9] I
wbs_cyc_i I
wbs_dat_i[0] I
wbs_dat_i[10] I
wbs_dat_i[11] I
wbs_dat_i[12] I
wbs_dat_i[13] I
wbs_dat_i[14] I
wbs_dat_i[15] I
wbs_dat_i[16] I
wbs_dat_i[17] I
wbs_dat_i[18] I
wbs_dat_i[19] I
wbs_dat_i[1] I
wbs_dat_i[20] I
wbs_dat_i[21] I
wbs_dat_i[22] I
wbs_dat_i[23] I
wbs_dat_i[24] I
wbs_dat_i[25] I
wbs_dat_i[26] I
wbs_dat_i[27] I
wbs_dat_i[28] I
wbs_dat_i[29] I
wbs_dat_i[2] I
wbs_dat_i[30] I
wbs_dat_i[31] I
wbs_dat_i[3] I
wbs_dat_i[4] I
wbs_dat_i[5] I
wbs_dat_i[6] I
wbs_dat_i[7] I
wbs_dat_i[8] I
wbs_dat_i[9] I
wbs_dat_o[0] O
wbs_dat_o[10] O
wbs_dat_o[11] O
wbs_dat_o[12] O
wbs_dat_o[13] O
wbs_dat_o[14] O
wbs_dat_o[15] O
wbs_dat_o[16] O
wbs_dat_o[17] O
wbs_dat_o[18] O
wbs_dat_o[19] O
wbs_dat_o[1] O
wbs_dat_o[20] O
wbs_dat_o[21] O
wbs_dat_o[22] O
wbs_dat_o[23] O
wbs_dat_o[24] O
wbs_dat_o[25] O
wbs_dat_o[26] O
wbs_dat_o[27] O
wbs_dat_o[28] O
wbs_dat_o[29] O
wbs_dat_o[2] O
wbs_dat_o[30] O
wbs_dat_o[31] O
wbs_dat_o[3] O
wbs_dat_o[4] O
wbs_dat_o[5] O
wbs_dat_o[6] O
wbs_dat_o[7] O
wbs_dat_o[8] O
wbs_dat_o[9] O
wbs_sel_i[0] I
wbs_sel_i[1] I
wbs_sel_i[2] I
wbs_sel_i[3] I
wbs_stb_i I
wbs_we_i I

*D_NET *1 0.850719
*CONN
*P io_in[0] I
*I *710:io_in[0] I *D caravel_if
*CAP
1 io_in[0] 0.0226341
2 *710:io_in[0] 0.00408823
3 *1:13 0.0634021
4 *1:11 0.0593138
5 *1:9 0.0534058
6 *1:7 0.0534058
7 *1:5 0.0226341
8 *710:io_in[0] *710:la_data_in[41] 0.000130689
9 *710:io_in[0] *710:la_data_in[46] 0.000365057
10 *710:io_in[0] *155:13 0.00113677
11 *1:5 *228:29 0.00479082
12 *1:9 la_data_out[47] 0
13 *1:9 *163:13 0.301983
14 *1:9 *702:17 0.00867101
15 *1:13 *41:13 0.0240317
16 *1:13 *211:9 0.208612
17 *1:13 *587:13 0.0208442
18 *1:13 *618:9 0
19 *1:13 *670:13 0.00126975
*RES
1 io_in[0] *1:5 206.18 
2 *1:5 *1:7 4.5 
3 *1:7 *1:9 833.976 
4 *1:9 *1:11 4.5 
5 *1:11 *1:13 817.128 
6 *1:13 *710:io_in[0] 41.576 
*END

*D_NET *2 0.639146
*CONN
*P io_in[10] I
*I *710:io_in[10] I *D caravel_if
*CAP
1 io_in[10] 0.0267486
2 *710:io_in[10] 0.000664311
3 *2:19 0.00271038
4 *2:13 0.00898238
5 *2:11 0.00693631
6 *2:9 0.00863873
7 *2:7 0.00863873
8 *2:5 0.0267486
9 *710:io_in[10] *710:io_in[11] 7.96908e-05
10 *710:io_in[10] *430:5 7.90089e-05
11 *2:9 *111:13 0.00518191
12 *2:9 *155:5 0
13 *2:9 *468:13 0.00854307
14 *2:9 *574:17 0.00146778
15 *2:13 *139:17 0.206408
16 *2:13 *221:9 0.0062216
17 *2:13 *454:25 0.269319
18 *2:13 *641:13 0.0335254
19 *2:19 *146:13 0.0156949
20 *2:19 *149:21 0.000415776
21 *2:19 *430:5 0.00214296
*RES
1 io_in[10] *2:5 224.484 
2 *2:5 *2:7 4.5 
3 *2:7 *2:9 88.712 
4 *2:9 *2:11 4.5 
5 *2:11 *2:13 729.976 
6 *2:13 *2:19 46.308 
7 *2:19 *710:io_in[10] 4.628 
*END

*D_NET *3 0.618954
*CONN
*P io_in[11] I
*I *710:io_in[11] I *D caravel_if
*CAP
1 io_in[11] 0.00409968
2 *710:io_in[11] 0.00115702
3 *3:23 0.00537075
4 *3:13 0.0573349
5 *3:11 0.0572209
6 *710:io_in[11] *82:7 2.35912e-05
7 *710:io_in[11] *146:13 3.37813e-05
8 *3:11 io_out[11] 0.000255592
9 *3:11 *40:21 0.0023032
10 *3:13 *4:13 0.0144
11 *3:13 *79:13 0.458029
12 *3:13 *666:13 0.00946087
13 *3:13 *669:22 0.00885051
14 *3:23 *20:13 0
15 *3:23 *224:11 0.000133703
16 *3:23 *431:7 0.000201005
17 *710:io_in[10] *710:io_in[11] 7.96908e-05
*RES
1 io_in[11] *3:11 45.738 
2 *3:11 *3:13 403.652 
3 *3:13 *3:23 43.894 
4 *3:23 *710:io_in[11] 7.332 
*END

*D_NET *4 0.38653
*CONN
*P io_in[12] I
*I *710:io_in[12] I *D caravel_if
*CAP
1 io_in[12] 0.026992
2 *710:io_in[12] 0.000812391
3 *4:17 0.00554261
4 *4:15 0.00473021
5 *4:13 0.0552258
6 *4:11 0.0552258
7 *4:9 0.00515525
8 *4:5 0.0321473
9 *710:io_in[12] *104:7 0.00017942
10 *710:io_in[12] *216:5 0.00017942
11 *710:io_in[12] *227:10 0.000123015
12 *4:13 *577:13 0
13 *4:13 *665:13 0
14 *4:13 *666:13 0.00074297
15 *4:13 *669:22 0.151221
16 *4:17 *41:9 0.0316631
17 *4:17 *97:9 0
18 *4:17 *104:9 0.00218985
19 *3:13 *4:13 0.0144
*RES
1 io_in[12] *4:5 231.14 
2 *4:5 *4:9 49.74 
3 *4:9 *4:11 4.5 
4 *4:11 *4:13 645.528 
5 *4:13 *4:15 4.5 
6 *4:15 *4:17 81.224 
7 *4:17 *710:io_in[12] 11.624 
*END

*D_NET *5 0.46846
*CONN
*P io_in[13] I
*I *710:io_in[13] I *D caravel_if
*CAP
1 io_in[13] 0.00623095
2 *710:io_in[13] 9.54607e-05
3 *5:13 0.0250857
4 *5:11 0.0249902
5 *5:9 0.00753927
6 *5:7 0.00753927
7 *5:5 0.00623095
8 *710:io_in[13] *229:13 1.06021e-05
9 *710:io_in[13] *315:15 1.36848e-05
10 *5:13 *712:proj_out[61] 0.0134901
11 *5:13 *40:17 0.000536342
12 *5:13 *59:11 0.00491504
13 *5:13 *70:9 0.0393693
14 *5:13 *80:13 0.0288656
15 *5:13 *316:17 0.00158469
16 *5:13 *439:12 0.00497752
17 *5:13 *447:17 0.0329336
18 *5:13 *613:13 0.229001
19 *5:13 *619:17 0.00096222
20 *5:13 *625:6 0.0148699
21 *5:13 *633:17 0.000211699
22 *5:13 *653:13 0.0144217
23 *5:13 *684:17 0.0045858
*RES
1 io_in[13] *5:5 53.3 
2 *5:5 *5:7 4.5 
3 *5:7 *5:9 62.712 
4 *5:9 *5:11 4.5 
5 *5:11 *5:13 910.104 
6 *5:13 *710:io_in[13] 5.176 
*END

*D_NET *6 0.258303
*CONN
*P io_in[14] I
*I *710:io_in[14] I *D caravel_if
*CAP
1 io_in[14] 0.115411
2 *710:io_in[14] 0.00158468
3 *6:5 0.116996
4 *710:io_in[14] *238:7 0.000231732
5 *710:io_in[14] *315:15 8.31027e-05
6 *6:5 *219:9 0
7 *6:5 *236:9 0
8 *6:5 *238:9 0.0161001
9 *6:5 *444:9 0.0078971
10 *6:5 *675:13 0
*RES
1 io_in[14] *6:5 965.796 
2 *6:5 *710:io_in[14] 16.2 
*END

*D_NET *7 0.363634
*CONN
*P io_in[15] I
*I *710:io_in[15] I *D caravel_if
*CAP
1 io_in[15] 0.00708254
2 *710:io_in[15] 0.00171191
3 *7:13 0.0125631
4 *7:11 0.0108512
5 *7:9 0.0605103
6 *7:7 0.0605103
7 *7:5 0.00708254
8 *710:io_in[15] *420:7 3.44286e-05
9 *710:io_in[15] *435:7 0.000140589
10 *7:9 *87:13 0.126435
11 *7:9 *232:9 0.0085042
12 *7:9 *238:9 0
13 *7:9 *531:13 0.0337664
14 *7:9 *538:13 0
15 *7:13 *48:9 0.0344408
*RES
1 io_in[15] *7:5 59.54 
2 *7:5 *7:7 4.5 
3 *7:7 *7:9 850.408 
4 *7:9 *7:11 4.5 
5 *7:11 *7:13 124.072 
6 *7:13 *710:io_in[15] 17.448 
*END

*D_NET *8 0.400729
*CONN
*P io_in[16] I
*I *710:io_in[16] I *D caravel_if
*CAP
1 io_in[16] 0.00377864
2 *710:io_in[16] 0.000408681
3 *8:13 0.0109535
4 *8:11 0.0105448
5 *8:9 0.0747128
6 *8:7 0.0784915
7 *710:io_in[16] *710:out[8] 6.99991e-05
8 *710:io_in[16] *411:7 7.30178e-05
9 *8:9 *10:9 0.192859
10 *8:13 *710:out[1] 0.012195
11 *8:13 *11:13 0.00459827
12 *8:13 *80:11 0.000841587
13 *8:13 *382:9 0.00208913
14 *8:13 *409:9 0.00911321
*RES
1 io_in[16] *8:7 35.96 
2 *8:7 *8:9 891.8 
3 *8:9 *8:11 4.5 
4 *8:11 *8:13 123.448 
5 *8:13 *710:io_in[16] 7.672 
*END

*D_NET *9 0.275485
*CONN
*P io_in[17] I
*I *710:io_in[17] I *D caravel_if
*CAP
1 io_in[17] 0.00682077
2 *710:io_in[17] 0.00156518
3 *9:13 0.00268374
4 *9:11 0.00111856
5 *9:9 0.0887541
6 *9:7 0.0887541
7 *9:5 0.00682077
8 *710:io_in[17] *45:7 0.000132845
9 *9:9 *538:13 0
10 *9:13 *15:13 0.0377875
11 *9:13 *45:9 0.0399479
12 *9:13 *92:10 0.00109951
*RES
1 io_in[17] *9:5 56.42 
2 *9:5 *9:7 4.5 
3 *9:7 *9:9 775.32 
4 *9:9 *9:11 4.5 
5 *9:11 *9:13 105.976 
6 *9:13 *710:io_in[17] 14.12 
*END

*D_NET *10 0.302103
*CONN
*P io_in[18] I
*I *710:io_in[18] I *D caravel_if
*CAP
1 io_in[18] 0.00381554
2 *710:io_in[18] 0.00129518
3 *10:13 0.00836426
4 *10:11 0.00706908
5 *10:9 0.02847
6 *10:7 0.0322856
7 *710:io_in[18] *208:5 0.000256091
8 *710:io_in[18] *223:11 8.23909e-05
9 *10:13 *74:16 0.0194184
10 *10:13 *439:8 0.00818792
11 *8:9 *10:9 0.192859
*RES
1 io_in[18] *10:7 35.752 
2 *10:7 *10:9 484.536 
3 *10:9 *10:11 4.5 
4 *10:11 *10:13 96.2 
5 *10:13 *710:io_in[18] 14.536 
*END

*D_NET *11 0.155594
*CONN
*P io_in[19] I
*I *710:io_in[19] I *D caravel_if
*CAP
1 io_in[19] 0.00575995
2 *710:io_in[19] 0.000321084
3 *11:13 0.00496411
4 *11:11 0.00464302
5 *11:9 0.0598797
6 *11:7 0.0598797
7 *11:5 0.00575995
8 *710:io_in[19] *50:7 6.8291e-05
9 *710:io_in[19] *231:7 6.52722e-05
10 *11:13 *710:out[1] 0.00931533
11 *11:13 *43:9 0.000338919
12 *8:13 *11:13 0.00459827
*RES
1 io_in[19] *11:5 47.06 
2 *11:5 *11:7 4.5 
3 *11:7 *11:9 522.6 
4 *11:9 *11:11 4.5 
5 *11:11 *11:13 55.432 
6 *11:13 *710:io_in[19] 7.256 
*END

*D_NET *12 0.877093
*CONN
*P io_in[1] I
*I *710:io_in[1] I *D caravel_if
*CAP
1 io_in[1] 0.00201966
2 *710:io_in[1] 0.0339011
3 *12:15 0.0339011
4 *12:13 0.0139046
5 *12:11 0.0139046
6 *12:9 0.0584721
7 *12:7 0.0604918
8 *710:io_in[1] *710:la_data_in[26] 0.000137506
9 *710:io_in[1] *710:la_data_in[3] 0.00531398
10 *710:io_in[1] *156:13 0.0114611
11 *12:13 *62:13 0.0115346
12 *12:13 *72:13 0.353661
13 *12:13 *108:13 0.27839
*RES
1 io_in[1] *12:7 20.36 
2 *12:7 *12:9 491.816 
3 *12:9 *12:11 4.5 
4 *12:11 *12:13 895.128 
5 *12:13 *12:15 4.5 
6 *12:15 *710:io_in[1] 305.188 
*END

*D_NET *13 0.276627
*CONN
*P io_in[20] I
*I *710:io_in[20] I *D caravel_if
*CAP
1 io_in[20] 0.00108807
2 *710:io_in[20] 0
3 *13:17 0.00138283
4 *13:15 0.00138283
5 *13:13 0.0182771
6 *13:11 0.0182771
7 *13:9 0.012683
8 *13:7 0.0137711
9 *13:9 *49:14 0.0777363
10 *13:9 *90:9 0.00376833
11 *13:13 *191:13 0.0582196
12 *13:13 *259:13 0.000743472
13 *13:17 *710:la_oenb[63] 0.0031226
14 *13:17 *49:6 0.0388351
15 *13:17 *105:13 0.02734
*RES
1 io_in[20] *13:7 13.704 
2 *13:7 *13:9 216.84 
3 *13:9 *13:11 4.5 
4 *13:11 *13:13 212.472 
5 *13:13 *13:15 4.5 
6 *13:15 *13:17 99.112 
7 *13:17 *710:io_in[20] 4.5 
*END

*D_NET *14 0.10331
*CONN
*P io_in[21] I
*I *710:io_in[21] I *D caravel_if
*CAP
1 io_in[21] 0.00543323
2 *710:io_in[21] 0.000643883
3 *14:19 0.00395101
4 *14:9 0.0221821
5 *14:7 0.0243082
6 *710:io_in[21] *103:7 4.43294e-06
7 *710:io_in[21] *315:15 1.07369e-05
8 *14:9 io_out[24] 0
9 *14:9 *85:13 0.0387241
10 *14:19 *193:9 0.00253125
11 *14:19 *206:7 0.00142772
12 *14:19 *225:15 0.000283253
13 *14:19 *313:25 0.000284957
14 *14:19 *424:11 0.00352469
*RES
1 io_in[21] *14:7 48.232 
2 *14:7 *14:9 212.68 
3 *14:9 *14:19 48.652 
4 *14:19 *710:io_in[21] 4.212 
*END

*D_NET *15 0.184393
*CONN
*P io_in[22] I
*I *710:io_in[22] I *D caravel_if
*CAP
1 io_in[22] 0.00597619
2 *710:io_in[22] 0.00127646
3 *15:13 0.0021986
4 *15:11 0.000922141
5 *15:9 0.00528031
6 *15:7 0.00528031
7 *15:5 0.00597619
8 *710:io_in[22] *202:7 0.000215546
9 *710:io_in[22] *240:7 0.000218569
10 *15:5 *54:9 0.00849697
11 *15:9 *87:13 0.0624598
12 *15:9 *531:13 0.0104984
13 *15:9 *538:13 0
14 *15:13 *92:10 0.0378059
15 *9:13 *15:13 0.0377875
*RES
1 io_in[22] *15:5 59.54 
2 *15:5 *15:7 4.5 
3 *15:7 *15:9 160.888 
4 *15:9 *15:11 4.5 
5 *15:11 *15:13 99.112 
6 *15:13 *710:io_in[22] 14.328 
*END

*D_NET *16 0.0719003
*CONN
*P io_in[23] I
*I *710:io_in[23] I *D caravel_if
*CAP
1 io_in[23] 0.00284556
2 *710:io_in[23] 0.00226027
3 *16:13 0.027562
4 *16:11 0.0281473
5 *710:io_in[23] *17:13 0.000490615
6 *710:io_in[23] *44:9 0.0034831
7 *710:io_in[23] *82:9 0.00297958
8 *710:io_in[23] *94:6 0
9 *710:io_in[23] *192:13 0.0027475
10 *710:io_in[23] *209:11 2.49551e-05
11 *16:11 *90:9 0.00135942
*RES
1 io_in[23] *16:11 35.78 
2 *16:11 *16:13 214.76 
3 *16:13 *710:io_in[23] 47.636 
*END

*D_NET *17 0.140828
*CONN
*P io_in[24] I
*I *710:io_in[24] I *D caravel_if
*CAP
1 io_in[24] 0.00159781
2 *710:io_in[24] 0.000174732
3 *17:13 0.0113357
4 *17:11 0.011161
5 *17:9 0.0158794
6 *17:7 0.0174772
7 *710:io_in[24] *710:io_in[7] 2.90802e-05
8 *710:io_in[24] *427:7 1.50437e-05
9 *17:9 *60:13 0.000166625
10 *17:9 *103:13 0.0585851
11 *17:13 io_oeb[26] 0
12 *17:13 *19:13 0.0215503
13 *17:13 *94:6 0.00236537
14 *17:13 *105:13 0
15 *17:13 *192:13 0
16 *710:io_in[23] *17:13 0.000490615
*RES
1 io_in[24] *17:7 17.864 
2 *17:7 *17:9 207.688 
3 *17:9 *17:11 4.5 
4 *17:11 *17:13 111.592 
5 *17:13 *710:io_in[24] 5.8 
*END

*D_NET *18 0.110465
*CONN
*P io_in[25] I
*I *710:io_in[25] I *D caravel_if
*CAP
1 io_in[25] 0.00344338
2 *710:io_in[25] 0.000728827
3 *18:21 0.00256681
4 *18:19 0.00228121
5 *18:13 0.00319987
6 *18:11 0.00620002
7 *710:io_in[25] *76:7 7.52266e-05
8 *18:11 *55:9 0.00188016
9 *18:13 *60:9 0.00380904
10 *18:13 *103:9 0.000477434
11 *18:13 *313:23 0.00283084
12 *18:13 *315:25 0.0281067