*SPEF "ieee 1481-1999"
*DESIGN "user_project_wrapper"
*DATE "11:11:11 Fri 11 11, 1111"
*VENDOR "OpenRCX"
*PROGRAM "Parallel Extraction"
*VERSION "1.0"
*DESIGN_FLOW "NAME_SCOPE LOCAL" "PIN_CAP NONE"
*DIVIDER /
*DELIMITER :
*BUS_DELIMITER []
*T_UNIT 1 NS
*C_UNIT 1 PF
*R_UNIT 1 OHM
*L_UNIT 1 HENRY

*NAME_MAP
*1 io_in[0]
*2 io_in[10]
*3 io_in[11]
*4 io_in[12]
*5 io_in[13]
*6 io_in[14]
*7 io_in[15]
*8 io_in[16]
*9 io_in[17]
*10 io_in[18]
*11 io_in[19]
*12 io_in[1]
*13 io_in[20]
*14 io_in[21]
*15 io_in[22]
*16 io_in[23]
*17 io_in[24]
*18 io_in[25]
*19 io_in[26]
*20 io_in[27]
*21 io_in[28]
*22 io_in[29]
*23 io_in[2]
*24 io_in[30]
*25 io_in[31]
*26 io_in[32]
*27 io_in[33]
*28 io_in[34]
*29 io_in[35]
*30 io_in[36]
*31 io_in[37]
*32 io_in[3]
*33 io_in[4]
*34 io_in[5]
*35 io_in[6]
*36 io_in[7]
*37 io_in[8]
*38 io_in[9]
*39 io_oeb[0]
*40 io_oeb[10]
*41 io_oeb[11]
*42 io_oeb[12]
*43 io_oeb[13]
*44 io_oeb[14]
*45 io_oeb[15]
*46 io_oeb[16]
*47 io_oeb[17]
*48 io_oeb[18]
*49 io_oeb[19]
*50 io_oeb[1]
*51 io_oeb[20]
*52 io_oeb[21]
*53 io_oeb[22]
*54 io_oeb[23]
*55 io_oeb[24]
*56 io_oeb[25]
*57 io_oeb[26]
*58 io_oeb[27]
*59 io_oeb[28]
*60 io_oeb[29]
*61 io_oeb[2]
*62 io_oeb[30]
*63 io_oeb[31]
*64 io_oeb[32]
*65 io_oeb[33]
*66 io_oeb[34]
*67 io_oeb[35]
*68 io_oeb[36]
*69 io_oeb[37]
*70 io_oeb[3]
*71 io_oeb[4]
*72 io_oeb[5]
*73 io_oeb[6]
*74 io_oeb[7]
*75 io_oeb[8]
*76 io_oeb[9]
*77 io_out[0]
*78 io_out[10]
*79 io_out[11]
*80 io_out[12]
*81 io_out[13]
*82 io_out[14]
*83 io_out[15]
*84 io_out[16]
*85 io_out[17]
*86 io_out[18]
*87 io_out[19]
*88 io_out[1]
*89 io_out[20]
*90 io_out[21]
*91 io_out[22]
*92 io_out[23]
*93 io_out[24]
*94 io_out[25]
*95 io_out[26]
*96 io_out[27]
*97 io_out[28]
*98 io_out[29]
*99 io_out[2]
*100 io_out[30]
*101 io_out[31]
*102 io_out[32]
*103 io_out[33]
*104 io_out[34]
*105 io_out[35]
*106 io_out[36]
*107 io_out[37]
*108 io_out[3]
*109 io_out[4]
*110 io_out[5]
*111 io_out[6]
*112 io_out[7]
*113 io_out[8]
*114 io_out[9]
*115 la_data_in[0]
*116 la_data_in[10]
*117 la_data_in[11]
*118 la_data_in[12]
*119 la_data_in[13]
*120 la_data_in[14]
*121 la_data_in[15]
*122 la_data_in[16]
*123 la_data_in[17]
*124 la_data_in[18]
*125 la_data_in[19]
*126 la_data_in[1]
*127 la_data_in[20]
*128 la_data_in[21]
*129 la_data_in[22]
*130 la_data_in[23]
*131 la_data_in[24]
*132 la_data_in[25]
*133 la_data_in[26]
*134 la_data_in[27]
*135 la_data_in[28]
*136 la_data_in[29]
*137 la_data_in[2]
*138 la_data_in[30]
*139 la_data_in[31]
*140 la_data_in[32]
*141 la_data_in[33]
*142 la_data_in[34]
*143 la_data_in[35]
*144 la_data_in[36]
*145 la_data_in[37]
*146 la_data_in[38]
*147 la_data_in[39]
*148 la_data_in[3]
*149 la_data_in[40]
*150 la_data_in[41]
*151 la_data_in[42]
*152 la_data_in[43]
*153 la_data_in[44]
*154 la_data_in[45]
*155 la_data_in[46]
*156 la_data_in[47]
*157 la_data_in[48]
*158 la_data_in[49]
*159 la_data_in[4]
*160 la_data_in[50]
*161 la_data_in[51]
*162 la_data_in[52]
*163 la_data_in[53]
*164 la_data_in[54]
*165 la_data_in[55]
*166 la_data_in[56]
*167 la_data_in[57]
*168 la_data_in[58]
*169 la_data_in[59]
*170 la_data_in[5]
*171 la_data_in[60]
*172 la_data_in[61]
*173 la_data_in[62]
*174 la_data_in[63]
*175 la_data_in[6]
*176 la_data_in[7]
*177 la_data_in[8]
*178 la_data_in[9]
*179 la_data_out[0]
*180 la_data_out[10]
*181 la_data_out[11]
*182 la_data_out[12]
*183 la_data_out[13]
*184 la_data_out[14]
*185 la_data_out[15]
*186 la_data_out[16]
*187 la_data_out[17]
*188 la_data_out[18]
*189 la_data_out[19]
*190 la_data_out[1]
*191 la_data_out[20]
*192 la_data_out[21]
*193 la_data_out[22]
*194 la_data_out[23]
*195 la_data_out[24]
*196 la_data_out[25]
*197 la_data_out[26]
*198 la_data_out[27]
*199 la_data_out[28]
*200 la_data_out[29]
*201 la_data_out[2]
*202 la_data_out[30]
*203 la_data_out[31]
*204 la_data_out[32]
*205 la_data_out[33]
*206 la_data_out[34]
*207 la_data_out[35]
*208 la_data_out[36]
*209 la_data_out[37]
*210 la_data_out[38]
*211 la_data_out[39]
*212 la_data_out[3]
*213 la_data_out[40]
*214 la_data_out[41]
*215 la_data_out[42]
*216 la_data_out[43]
*217 la_data_out[44]
*218 la_data_out[45]
*219 la_data_out[46]
*220 la_data_out[47]
*221 la_data_out[48]
*222 la_data_out[49]
*223 la_data_out[4]
*224 la_data_out[50]
*225 la_data_out[51]
*226 la_data_out[52]
*227 la_data_out[53]
*228 la_data_out[54]
*229 la_data_out[55]
*230 la_data_out[56]
*231 la_data_out[57]
*232 la_data_out[58]
*233 la_data_out[59]
*234 la_data_out[5]
*235 la_data_out[60]
*236 la_data_out[61]
*237 la_data_out[62]
*238 la_data_out[63]
*239 la_data_out[6]
*240 la_data_out[7]
*241 la_data_out[8]
*242 la_data_out[9]
*243 la_oenb[0]
*244 la_oenb[10]
*245 la_oenb[11]
*246 la_oenb[12]
*247 la_oenb[13]
*248 la_oenb[14]
*249 la_oenb[15]
*250 la_oenb[16]
*251 la_oenb[17]
*252 la_oenb[18]
*253 la_oenb[19]
*254 la_oenb[1]
*255 la_oenb[20]
*256 la_oenb[21]
*257 la_oenb[22]
*258 la_oenb[23]
*259 la_oenb[24]
*260 la_oenb[25]
*261 la_oenb[26]
*262 la_oenb[27]
*263 la_oenb[28]
*264 la_oenb[29]
*265 la_oenb[2]
*266 la_oenb[30]
*267 la_oenb[31]
*268 la_oenb[32]
*269 la_oenb[33]
*270 la_oenb[34]
*271 la_oenb[35]
*272 la_oenb[36]
*273 la_oenb[37]
*274 la_oenb[38]
*275 la_oenb[39]
*276 la_oenb[3]
*277 la_oenb[40]
*278 la_oenb[41]
*279 la_oenb[42]
*280 la_oenb[43]
*281 la_oenb[44]
*282 la_oenb[45]
*283 la_oenb[46]
*284 la_oenb[47]
*285 la_oenb[48]
*286 la_oenb[49]
*287 la_oenb[4]
*288 la_oenb[50]
*289 la_oenb[51]
*290 la_oenb[52]
*291 la_oenb[53]
*292 la_oenb[54]
*293 la_oenb[55]
*294 la_oenb[56]
*295 la_oenb[57]
*296 la_oenb[58]
*297 la_oenb[59]
*298 la_oenb[5]
*299 la_oenb[60]
*300 la_oenb[61]
*301 la_oenb[62]
*302 la_oenb[63]
*303 la_oenb[6]
*304 la_oenb[7]
*305 la_oenb[8]
*306 la_oenb[9]
*307 user_clock2
*308 user_irq[0]
*309 user_irq[1]
*310 user_irq[2]
*313 wb_clk_i
*314 wb_rst_i
*315 wbs_ack_o
*316 wbs_adr_i[0]
*317 wbs_adr_i[10]
*318 wbs_adr_i[11]
*319 wbs_adr_i[12]
*320 wbs_adr_i[13]
*321 wbs_adr_i[14]
*322 wbs_adr_i[15]
*323 wbs_adr_i[16]
*324 wbs_adr_i[17]
*325 wbs_adr_i[18]
*326 wbs_adr_i[19]
*327 wbs_adr_i[1]
*328 wbs_adr_i[20]
*329 wbs_adr_i[21]
*330 wbs_adr_i[22]
*331 wbs_adr_i[23]
*332 wbs_adr_i[24]
*333 wbs_adr_i[25]
*334 wbs_adr_i[26]
*335 wbs_adr_i[27]
*336 wbs_adr_i[28]
*337 wbs_adr_i[29]
*338 wbs_adr_i[2]
*339 wbs_adr_i[30]
*340 wbs_adr_i[31]
*341 wbs_adr_i[3]
*342 wbs_adr_i[4]
*343 wbs_adr_i[5]
*344 wbs_adr_i[6]
*345 wbs_adr_i[7]
*346 wbs_adr_i[8]
*347 wbs_adr_i[9]
*348 wbs_cyc_i
*349 wbs_dat_i[0]
*350 wbs_dat_i[10]
*351 wbs_dat_i[11]
*352 wbs_dat_i[12]
*353 wbs_dat_i[13]
*354 wbs_dat_i[14]
*355 wbs_dat_i[15]
*356 wbs_dat_i[16]
*357 wbs_dat_i[17]
*358 wbs_dat_i[18]
*359 wbs_dat_i[19]
*360 wbs_dat_i[1]
*361 wbs_dat_i[20]
*362 wbs_dat_i[21]
*363 wbs_dat_i[22]
*364 wbs_dat_i[23]
*365 wbs_dat_i[24]
*366 wbs_dat_i[25]
*367 wbs_dat_i[26]
*368 wbs_dat_i[27]
*369 wbs_dat_i[28]
*370 wbs_dat_i[29]
*371 wbs_dat_i[2]
*372 wbs_dat_i[30]
*373 wbs_dat_i[31]
*374 wbs_dat_i[3]
*375 wbs_dat_i[4]
*376 wbs_dat_i[5]
*377 wbs_dat_i[6]
*378 wbs_dat_i[7]
*379 wbs_dat_i[8]
*380 wbs_dat_i[9]
*381 wbs_dat_o[0]
*382 wbs_dat_o[10]
*383 wbs_dat_o[11]
*384 wbs_dat_o[12]
*385 wbs_dat_o[13]
*386 wbs_dat_o[14]
*387 wbs_dat_o[15]
*388 wbs_dat_o[16]
*389 wbs_dat_o[17]
*390 wbs_dat_o[18]
*391 wbs_dat_o[19]
*392 wbs_dat_o[1]
*393 wbs_dat_o[20]
*394 wbs_dat_o[21]
*395 wbs_dat_o[22]
*396 wbs_dat_o[23]
*397 wbs_dat_o[24]
*398 wbs_dat_o[25]
*399 wbs_dat_o[26]
*400 wbs_dat_o[27]
*401 wbs_dat_o[28]
*402 wbs_dat_o[29]
*403 wbs_dat_o[2]
*404 wbs_dat_o[30]
*405 wbs_dat_o[31]
*406 wbs_dat_o[3]
*407 wbs_dat_o[4]
*408 wbs_dat_o[5]
*409 wbs_dat_o[6]
*410 wbs_dat_o[7]
*411 wbs_dat_o[8]
*412 wbs_dat_o[9]
*413 wbs_sel_i[0]
*414 wbs_sel_i[1]
*415 wbs_sel_i[2]
*416 wbs_sel_i[3]
*417 wbs_stb_i
*418 wbs_we_i
*419 clk
*420 in\[0\]
*421 in\[10\]
*422 in\[11\]
*423 in\[12\]
*424 in\[13\]
*425 in\[14\]
*426 in\[15\]
*427 in\[16\]
*428 in\[17\]
*429 in\[1\]
*430 in\[2\]
*431 in\[3\]
*432 in\[4\]
*433 in\[5\]
*434 in\[6\]
*435 in\[7\]
*436 in\[8\]
*437 in\[9\]
*438 out\[0\]
*439 out\[10\]
*440 out\[11\]
*441 out\[1\]
*442 out\[2\]
*443 out\[3\]
*444 out\[4\]
*445 out\[5\]
*446 out\[6\]
*447 out\[7\]
*448 out\[8\]
*449 out\[9\]
*450 proj_clk\[0\]
*451 proj_clk\[1\]
*452 proj_clk\[2\]
*453 proj_clk\[3\]
*454 proj_clk\[4\]
*455 proj_clk\[5\]
*456 proj_clk\[6\]
*457 proj_clk\[7\]
*458 proj_in\[0\]
*459 proj_in\[100\]
*460 proj_in\[101\]
*461 proj_in\[102\]
*462 proj_in\[103\]
*463 proj_in\[104\]
*464 proj_in\[105\]
*465 proj_in\[106\]
*466 proj_in\[107\]
*467 proj_in\[108\]
*468 proj_in\[109\]
*469 proj_in\[10\]
*470 proj_in\[110\]
*471 proj_in\[111\]
*472 proj_in\[112\]
*473 proj_in\[113\]
*474 proj_in\[114\]
*475 proj_in\[115\]
*476 proj_in\[116\]
*477 proj_in\[117\]
*478 proj_in\[118\]
*479 proj_in\[119\]
*480 proj_in\[11\]
*481 proj_in\[120\]
*482 proj_in\[121\]
*483 proj_in\[122\]
*484 proj_in\[123\]
*485 proj_in\[124\]
*486 proj_in\[125\]
*487 proj_in\[126\]
*488 proj_in\[127\]
*489 proj_in\[128\]
*490 proj_in\[129\]
*491 proj_in\[12\]
*492 proj_in\[130\]
*493 proj_in\[131\]
*494 proj_in\[132\]
*495 proj_in\[133\]
*496 proj_in\[134\]
*497 proj_in\[135\]
*498 proj_in\[136\]
*499 proj_in\[137\]
*500 proj_in\[138\]
*501 proj_in\[139\]
*502 proj_in\[13\]
*503 proj_in\[140\]
*504 proj_in\[141\]
*505 proj_in\[142\]
*506 proj_in\[143\]
*507 proj_in\[14\]
*508 proj_in\[15\]
*509 proj_in\[16\]
*510 proj_in\[17\]
*511 proj_in\[18\]
*512 proj_in\[19\]
*513 proj_in\[1\]
*514 proj_in\[20\]
*515 proj_in\[21\]
*516 proj_in\[22\]
*517 proj_in\[23\]
*518 proj_in\[24\]
*519 proj_in\[25\]
*520 proj_in\[26\]
*521 proj_in\[27\]
*522 proj_in\[28\]
*523 proj_in\[29\]
*524 proj_in\[2\]
*525 proj_in\[30\]
*526 proj_in\[31\]
*527 proj_in\[32\]
*528 proj_in\[33\]
*529 proj_in\[34\]
*530 proj_in\[35\]
*531 proj_in\[36\]
*532 proj_in\[37\]
*533 proj_in\[38\]
*534 proj_in\[39\]
*535 proj_in\[3\]
*536 proj_in\[40\]
*537 proj_in\[41\]
*538 proj_in\[42\]
*539 proj_in\[43\]
*540 proj_in\[44\]
*541 proj_in\[45\]
*542 proj_in\[46\]
*543 proj_in\[47\]
*544 proj_in\[48\]
*545 proj_in\[49\]
*546 proj_in\[4\]
*547 proj_in\[50\]
*548 proj_in\[51\]
*549 proj_in\[52\]
*550 proj_in\[53\]
*551 proj_in\[54\]
*552 proj_in\[55\]
*553 proj_in\[56\]
*554 proj_in\[57\]
*555 proj_in\[58\]
*556 proj_in\[59\]
*557 proj_in\[5\]
*558 proj_in\[60\]
*559 proj_in\[61\]
*560 proj_in\[62\]
*561 proj_in\[63\]
*562 proj_in\[64\]
*563 proj_in\[65\]
*564 proj_in\[66\]
*565 proj_in\[67\]
*566 proj_in\[68\]
*567 proj_in\[69\]
*568 proj_in\[6\]
*569 proj_in\[70\]
*570 proj_in\[71\]
*571 proj_in\[72\]
*572 proj_in\[73\]
*573 proj_in\[74\]
*574 proj_in\[75\]
*575 proj_in\[76\]
*576 proj_in\[77\]
*577 proj_in\[78\]
*578 proj_in\[79\]
*579 proj_in\[7\]
*580 proj_in\[80\]
*581 proj_in\[81\]
*582 proj_in\[82\]
*583 proj_in\[83\]
*584 proj_in\[84\]
*585 proj_in\[85\]
*586 proj_in\[86\]
*587 proj_in\[87\]
*588 proj_in\[88\]
*589 proj_in\[89\]
*590 proj_in\[8\]
*591 proj_in\[90\]
*592 proj_in\[91\]
*593 proj_in\[92\]
*594 proj_in\[93\]
*595 proj_in\[94\]
*596 proj_in\[95\]
*597 proj_in\[96\]
*598 proj_in\[97\]
*599 proj_in\[98\]
*600 proj_in\[99\]
*601 proj_in\[9\]
*602 proj_out\[0\]
*603 proj_out\[10\]
*604 proj_out\[11\]
*605 proj_out\[12\]
*606 proj_out\[13\]
*607 proj_out\[14\]
*608 proj_out\[15\]
*609 proj_out\[16\]
*610 proj_out\[17\]
*611 proj_out\[18\]
*612 proj_out\[19\]
*613 proj_out\[1\]
*614 proj_out\[20\]
*615 proj_out\[21\]
*616 proj_out\[22\]
*617 proj_out\[23\]
*618 proj_out\[24\]
*619 proj_out\[25\]
*620 proj_out\[26\]
*621 proj_out\[27\]
*622 proj_out\[28\]
*623 proj_out\[29\]
*624 proj_out\[2\]
*625 proj_out\[30\]
*626 proj_out\[31\]
*627 proj_out\[32\]
*628 proj_out\[33\]
*629 proj_out\[34\]
*630 proj_out\[35\]
*631 proj_out\[36\]
*632 proj_out\[37\]
*633 proj_out\[38\]
*634 proj_out\[39\]
*635 proj_out\[3\]
*636 proj_out\[40\]
*637 proj_out\[41\]
*638 proj_out\[42\]
*639 proj_out\[43\]
*640 proj_out\[44\]
*641 proj_out\[45\]
*642 proj_out\[46\]
*643 proj_out\[47\]
*644 proj_out\[48\]
*645 proj_out\[49\]
*646 proj_out\[4\]
*647 proj_out\[50\]
*648 proj_out\[51\]
*649 proj_out\[52\]
*650 proj_out\[53\]
*651 proj_out\[54\]
*652 proj_out\[55\]
*653 proj_out\[56\]
*654 proj_out\[57\]
*655 proj_out\[58\]
*656 proj_out\[59\]
*657 proj_out\[5\]
*658 proj_out\[60\]
*659 proj_out\[61\]
*660 proj_out\[62\]
*661 proj_out\[63\]
*662 proj_out\[64\]
*663 proj_out\[65\]
*664 proj_out\[66\]
*665 proj_out\[67\]
*666 proj_out\[68\]
*667 proj_out\[69\]
*668 proj_out\[6\]
*669 proj_out\[70\]
*670 proj_out\[71\]
*671 proj_out\[72\]
*672 proj_out\[73\]
*673 proj_out\[74\]
*674 proj_out\[75\]
*675 proj_out\[76\]
*676 proj_out\[77\]
*677 proj_out\[78\]
*678 proj_out\[79\]
*679 proj_out\[7\]
*680 proj_out\[80\]
*681 proj_out\[81\]
*682 proj_out\[82\]
*683 proj_out\[83\]
*684 proj_out\[84\]
*685 proj_out\[85\]
*686 proj_out\[86\]
*687 proj_out\[87\]
*688 proj_out\[88\]
*689 proj_out\[89\]
*690 proj_out\[8\]
*691 proj_out\[90\]
*692 proj_out\[91\]
*693 proj_out\[92\]
*694 proj_out\[93\]
*695 proj_out\[94\]
*696 proj_out\[95\]
*697 proj_out\[9\]
*698 proj_rst_n\[0\]
*699 proj_rst_n\[1\]
*700 proj_rst_n\[2\]
*701 proj_rst_n\[3\]
*702 proj_rst_n\[4\]
*703 proj_rst_n\[5\]
*704 proj_rst_n\[6\]
*705 proj_rst_n\[7\]
*706 rst_n
*707 sel\[0\]
*708 sel\[1\]
*709 sel\[2\]
*710 ci
*711 im
*712 om
*713 p0
*714 p1
*715 p2
*716 p3
*717 p4
*718 p5
*719 p6
*720 p7

*PORTS
io_in[0] I
io_in[10] I
io_in[11] I
io_in[12] I
io_in[13] I
io_in[14] I
io_in[15] I
io_in[16] I
io_in[17] I
io_in[18] I
io_in[19] I
io_in[1] I
io_in[20] I
io_in[21] I
io_in[22] I
io_in[23] I
io_in[24] I
io_in[25] I
io_in[26] I
io_in[27] I
io_in[28] I
io_in[29] I
io_in[2] I
io_in[30] I
io_in[31] I
io_in[32] I
io_in[33] I
io_in[34] I
io_in[35] I
io_in[36] I
io_in[37] I
io_in[3] I
io_in[4] I
io_in[5] I
io_in[6] I
io_in[7] I
io_in[8] I
io_in[9] I
io_oeb[0] O
io_oeb[10] O
io_oeb[11] O
io_oeb[12] O
io_oeb[13] O
io_oeb[14] O
io_oeb[15] O
io_oeb[16] O
io_oeb[17] O
io_oeb[18] O
io_oeb[19] O
io_oeb[1] O
io_oeb[20] O
io_oeb[21] O
io_oeb[22] O
io_oeb[23] O
io_oeb[24] O
io_oeb[25] O
io_oeb[26] O
io_oeb[27] O
io_oeb[28] O
io_oeb[29] O
io_oeb[2] O
io_oeb[30] O
io_oeb[31] O
io_oeb[32] O
io_oeb[33] O
io_oeb[34] O
io_oeb[35] O
io_oeb[36] O
io_oeb[37] O
io_oeb[3] O
io_oeb[4] O
io_oeb[5] O
io_oeb[6] O
io_oeb[7] O
io_oeb[8] O
io_oeb[9] O
io_out[0] O
io_out[10] O
io_out[11] O
io_out[12] O
io_out[13] O
io_out[14] O
io_out[15] O
io_out[16] O
io_out[17] O
io_out[18] O
io_out[19] O
io_out[1] O
io_out[20] O
io_out[21] O
io_out[22] O
io_out[23] O
io_out[24] O
io_out[25] O
io_out[26] O
io_out[27] O
io_out[28] O
io_out[29] O
io_out[2] O
io_out[30] O
io_out[31] O
io_out[32] O
io_out[33] O
io_out[34] O
io_out[35] O
io_out[36] O
io_out[37] O
io_out[3] O
io_out[4] O
io_out[5] O
io_out[6] O
io_out[7] O
io_out[8] O
io_out[9] O
la_data_in[0] I
la_data_in[10] I
la_data_in[11] I
la_data_in[12] I
la_data_in[13] I
la_data_in[14] I
la_data_in[15] I
la_data_in[16] I
la_data_in[17] I
la_data_in[18] I
la_data_in[19] I
la_data_in[1] I
la_data_in[20] I
la_data_in[21] I
la_data_in[22] I
la_data_in[23] I
la_data_in[24] I
la_data_in[25] I
la_data_in[26] I
la_data_in[27] I
la_data_in[28] I
la_data_in[29] I
la_data_in[2] I
la_data_in[30] I
la_data_in[31] I
la_data_in[32] I
la_data_in[33] I
la_data_in[34] I
la_data_in[35] I
la_data_in[36] I
la_data_in[37] I
la_data_in[38] I
la_data_in[39] I
la_data_in[3] I
la_data_in[40] I
la_data_in[41] I
la_data_in[42] I
la_data_in[43] I
la_data_in[44] I
la_data_in[45] I
la_data_in[46] I
la_data_in[47] I
la_data_in[48] I
la_data_in[49] I
la_data_in[4] I
la_data_in[50] I
la_data_in[51] I
la_data_in[52] I
la_data_in[53] I
la_data_in[54] I
la_data_in[55] I
la_data_in[56] I
la_data_in[57] I
la_data_in[58] I
la_data_in[59] I
la_data_in[5] I
la_data_in[60] I
la_data_in[61] I
la_data_in[62] I
la_data_in[63] I
la_data_in[6] I
la_data_in[7] I
la_data_in[8] I
la_data_in[9] I
la_data_out[0] O
la_data_out[10] O
la_data_out[11] O
la_data_out[12] O
la_data_out[13] O
la_data_out[14] O
la_data_out[15] O
la_data_out[16] O
la_data_out[17] O
la_data_out[18] O
la_data_out[19] O
la_data_out[1] O
la_data_out[20] O
la_data_out[21] O
la_data_out[22] O
la_data_out[23] O
la_data_out[24] O
la_data_out[25] O
la_data_out[26] O
la_data_out[27] O
la_data_out[28] O
la_data_out[29] O
la_data_out[2] O
la_data_out[30] O
la_data_out[31] O
la_data_out[32] O
la_data_out[33] O
la_data_out[34] O
la_data_out[35] O
la_data_out[36] O
la_data_out[37] O
la_data_out[38] O
la_data_out[39] O
la_data_out[3] O
la_data_out[40] O
la_data_out[41] O
la_data_out[42] O
la_data_out[43] O
la_data_out[44] O
la_data_out[45] O
la_data_out[46] O
la_data_out[47] O
la_data_out[48] O
la_data_out[49] O
la_data_out[4] O
la_data_out[50] O
la_data_out[51] O
la_data_out[52] O
la_data_out[53] O
la_data_out[54] O
la_data_out[55] O
la_data_out[56] O
la_data_out[57] O
la_data_out[58] O
la_data_out[59] O
la_data_out[5] O
la_data_out[60] O
la_data_out[61] O
la_data_out[62] O
la_data_out[63] O
la_data_out[6] O
la_data_out[7] O
la_data_out[8] O
la_data_out[9] O
la_oenb[0] I
la_oenb[10] I
la_oenb[11] I
la_oenb[12] I
la_oenb[13] I
la_oenb[14] I
la_oenb[15] I
la_oenb[16] I
la_oenb[17] I
la_oenb[18] I
la_oenb[19] I
la_oenb[1] I
la_oenb[20] I
la_oenb[21] I
la_oenb[22] I
la_oenb[23] I
la_oenb[24] I
la_oenb[25] I
la_oenb[26] I
la_oenb[27] I
la_oenb[28] I
la_oenb[29] I
la_oenb[2] I
la_oenb[30] I
la_oenb[31] I
la_oenb[32] I
la_oenb[33] I
la_oenb[34] I
la_oenb[35] I
la_oenb[36] I
la_oenb[37] I
la_oenb[38] I
la_oenb[39] I
la_oenb[3] I
la_oenb[40] I
la_oenb[41] I
la_oenb[42] I
la_oenb[43] I
la_oenb[44] I
la_oenb[45] I
la_oenb[46] I
la_oenb[47] I
la_oenb[48] I
la_oenb[49] I
la_oenb[4] I
la_oenb[50] I
la_oenb[51] I
la_oenb[52] I
la_oenb[53] I
la_oenb[54] I
la_oenb[55] I
la_oenb[56] I
la_oenb[57] I
la_oenb[58] I
la_oenb[59] I
la_oenb[5] I
la_oenb[60] I
la_oenb[61] I
la_oenb[62] I
la_oenb[63] I
la_oenb[6] I
la_oenb[7] I
la_oenb[8] I
la_oenb[9] I
user_clock2 I
user_irq[0] O
user_irq[1] O
user_irq[2] O
wb_clk_i I
wb_rst_i I
wbs_ack_o O
wbs_adr_i[0] I
wbs_adr_i[10] I
wbs_adr_i[11] I
wbs_adr_i[12] I
wbs_adr_i[13] I
wbs_adr_i[14] I
wbs_adr_i[15] I
wbs_adr_i[16] I
wbs_adr_i[17] I
wbs_adr_i[18] I
wbs_adr_i[19] I
wbs_adr_i[1] I
wbs_adr_i[20] I
wbs_adr_i[21] I
wbs_adr_i[22] I
wbs_adr_i[23] I
wbs_adr_i[24] I
wbs_adr_i[25] I
wbs_adr_i[26] I
wbs_adr_i[27] I
wbs_adr_i[28] I
wbs_adr_i[29] I
wbs_adr_i[2] I
wbs_adr_i[30] I
wbs_adr_i[31] I
wbs_adr_i[3] I
wbs_adr_i[4] I
wbs_adr_i[5] I
wbs_adr_i[6] I
wbs_adr_i[7] I
wbs_adr_i[8] I
wbs_adr_i[9] I
wbs_cyc_i I
wbs_dat_i[0] I
wbs_dat_i[10] I
wbs_dat_i[11] I
wbs_dat_i[12] I
wbs_dat_i[13] I
wbs_dat_i[14] I
wbs_dat_i[15] I
wbs_dat_i[16] I
wbs_dat_i[17] I
wbs_dat_i[18] I
wbs_dat_i[19] I
wbs_dat_i[1] I
wbs_dat_i[20] I
wbs_dat_i[21] I
wbs_dat_i[22] I
wbs_dat_i[23] I
wbs_dat_i[24] I
wbs_dat_i[25] I
wbs_dat_i[26] I
wbs_dat_i[27] I
wbs_dat_i[28] I
wbs_dat_i[29] I
wbs_dat_i[2] I
wbs_dat_i[30] I
wbs_dat_i[31] I
wbs_dat_i[3] I
wbs_dat_i[4] I
wbs_dat_i[5] I
wbs_dat_i[6] I
wbs_dat_i[7] I
wbs_dat_i[8] I
wbs_dat_i[9] I
wbs_dat_o[0] O
wbs_dat_o[10] O
wbs_dat_o[11] O
wbs_dat_o[12] O
wbs_dat_o[13] O
wbs_dat_o[14] O
wbs_dat_o[15] O
wbs_dat_o[16] O
wbs_dat_o[17] O
wbs_dat_o[18] O
wbs_dat_o[19] O
wbs_dat_o[1] O
wbs_dat_o[20] O
wbs_dat_o[21] O
wbs_dat_o[22] O
wbs_dat_o[23] O
wbs_dat_o[24] O
wbs_dat_o[25] O
wbs_dat_o[26] O
wbs_dat_o[27] O
wbs_dat_o[28] O
wbs_dat_o[29] O
wbs_dat_o[2] O
wbs_dat_o[30] O
wbs_dat_o[31] O
wbs_dat_o[3] O
wbs_dat_o[4] O
wbs_dat_o[5] O
wbs_dat_o[6] O
wbs_dat_o[7] O
wbs_dat_o[8] O
wbs_dat_o[9] O
wbs_sel_i[0] I
wbs_sel_i[1] I
wbs_sel_i[2] I
wbs_sel_i[3] I
wbs_stb_i I
wbs_we_i I

*D_NET *1 0.873057
*CONN
*P io_in[0] I
*I *710:io_in[0] I *D caravel_if
*CAP
1 io_in[0] 0.0224384
2 *710:io_in[0] 0.00621264
3 *1:15 0.00621264
4 *1:13 0.0589463
5 *1:11 0.0589463
6 *1:9 0.0511258
7 *1:7 0.0511258
8 *1:5 0.0224384
9 *710:io_in[0] *710:la_data_in[41] 0.00140017
10 *710:io_in[0] *710:la_data_in[46] 0.00140736
11 *710:io_in[0] *435:17 0.00108704
12 *1:5 *228:29 0.00317297
13 *1:5 *286:9 0.00181832
14 *1:9 la_data_out[47] 0
15 *1:9 *164:13 0.30584
16 *1:9 *686:15 0.00382061
17 *1:13 *156:9 0.276598
18 *1:13 *596:13 0.000467042
*RES
1 io_in[0] *1:5 206.18 
2 *1:5 *1:7 4.5 
3 *1:7 *1:9 812.136 
4 *1:9 *1:11 4.5 
5 *1:11 *1:13 817.128 
6 *1:13 *1:15 4.5 
7 *1:15 *710:io_in[0] 58.916 
*END

*D_NET *2 0.495971
*CONN
*P io_in[10] I
*I *710:io_in[10] I *D caravel_if
*CAP
1 io_in[10] 0.0217643
2 *710:io_in[10] 0.000715096
3 *2:17 0.00494796
4 *2:15 0.00423287
5 *2:13 0.0501186
6 *2:11 0.0501186
7 *2:9 0.00439249
8 *2:7 0.00439249
9 *2:5 0.0217643
10 *710:io_in[10] *710:io_in[11] 9.47535e-05
11 *710:io_in[10] *430:7 9.40715e-05
12 *2:5 *701:65 0.000998995
13 *2:9 *684:13 0.0256217
14 *2:13 *150:17 0.273294
15 *2:13 *591:9 0.00236555
16 *2:13 *647:13 0.00658573
17 *2:17 *710:io_in[11] 0
18 *2:17 *211:13 0.0241211
19 *2:17 *430:7 0.000348638
*RES
1 io_in[10] *2:5 187.252 
2 *2:5 *2:7 4.5 
3 *2:7 *2:9 66.456 
4 *2:9 *2:11 4.5 
5 *2:11 *2:13 767.208 
6 *2:13 *2:15 4.5 
7 *2:15 *2:17 63.336 
8 *2:17 *710:io_in[10] 5.356 
*END

*D_NET *3 0.772972
*CONN
*P io_in[11] I
*I *710:io_in[11] I *D caravel_if
*CAP
1 io_in[11] 0.00358527
2 *710:io_in[11] 0.0041081
3 *3:13 0.00988235
4 *3:11 0.00935952
5 *710:io_in[11] *82:7 3.31795e-05
6 *710:io_in[11] *149:13 0.00208048
7 *710:io_in[11] *211:13 4.09194e-06
8 *3:11 *70:13 0.00924641
9 *3:13 io_out[11] 0.00537496
10 *3:13 *73:9 0.358468
11 *3:13 *78:13 0.370735
12 *710:io_in[10] *710:io_in[11] 9.47535e-05
13 *2:17 *710:io_in[11] 0
*RES
1 io_in[11] *3:11 48.468 
2 *3:11 *3:13 940.264 
3 *3:13 *710:io_in[11] 41.368 
*END

*D_NET *4 0.381535
*CONN
*P io_in[12] I
*I *710:io_in[12] I *D caravel_if
*CAP
1 io_in[12] 0.00119074
2 *710:io_in[12] 0.0450634
3 *4:19 0.0450634
4 *4:17 0.00473283
5 *4:15 0.00473283
6 *4:13 0.0296868
7 *4:11 0.0341675
8 *4:7 0.00567146
9 *710:io_in[12] *715:in[4] 0.00017153
10 *710:io_in[12] *104:7 0.000218135
11 *710:io_in[12] *216:5 0.00827127
12 *4:11 io_oeb[11] 0.0014387
13 *4:13 *301:9 0.00244695
14 *4:13 *308:13 0
15 *4:13 *687:13 0.166216
16 *4:17 *114:9 0.0324627
*RES
1 io_in[12] *4:7 14.12 
2 *4:7 *4:11 49.74 
3 *4:11 *4:13 473.928 
4 *4:13 *4:15 4.5 
5 *4:15 *4:17 81.224 
6 *4:17 *4:19 4.5 
7 *4:19 *710:io_in[12] 400.244 
*END

*D_NET *5 0.314163
*CONN
*P io_in[13] I
*I *710:io_in[13] I *D caravel_if
*CAP
1 io_in[13] 0.00120019
2 *710:io_in[13] 0.000932441
3 *5:13 0.0685204
4 *5:11 0.0675879
5 *5:9 0.00760966
6 *5:7 0.00880986
7 *710:io_in[13] *191:7 0.000302246
8 *710:io_in[13] *193:9 0.00171103
9 *710:io_in[13] *200:11 0.00183813
10 *710:io_in[13] *225:15 0.000495214
11 *710:io_in[13] *226:7 0.000126635
12 *710:io_in[13] *229:13 6.53942e-05
13 *710:io_in[13] *313:17 0.00199238
14 *710:io_in[13] *315:7 6.35413e-05
15 *710:io_in[13] *429:15 0.00116888
16 *5:9 *42:17 0.0048168
17 *5:13 *712:proj_out[49] 0
18 *5:13 *34:13 0
19 *5:13 *40:9 9.19908e-05
20 *5:13 *59:9 0.00262811
21 *5:13 *61:9 0.000842633
22 *5:13 *81:13 0
23 *5:13 *113:9 0.00496808
24 *5:13 *200:13 0
25 *5:13 *305:17 0.0398772
26 *5:13 *341:17 0.000687544
27 *5:13 *438:9 0
28 *5:13 *445:17 0.00484898
29 *5:13 *594:17 0
30 *5:13 *595:13 0.0104082
31 *5:13 *620:13 0.0202655
32 *5:13 *622:15 0
33 *5:13 *625:9 0.021135
34 *5:13 *626:9 0
35 *5:13 *629:9 0
36 *5:13 *671:17 0.0411694
*RES
1 io_in[13] *5:7 14.12 
2 *5:7 *5:9 63.544 
3 *5:9 *5:11 4.5 
4 *5:11 *5:13 939.224 
5 *5:13 *710:io_in[13] 34.352 
*END

*D_NET *6 0.267687
*CONN
*P io_in[14] I
*I *710:io_in[14] I *D caravel_if
*CAP
1 io_in[14] 0.00172235
2 *710:io_in[14] 0.0012045
3 *6:13 0.0773631
4 *6:11 0.077881
5 *710:io_in[14] *238:7 0.000144376
6 *710:io_in[14] *315:7 6.35413e-05
7 *6:13 *70:9 0
8 *6:13 *76:9 0.0103619
9 *6:13 *89:9 0.00562895
10 *6:13 *182:9 0.000814777
11 *6:13 *238:9 0
12 *6:13 *338:17 0.0057467
13 *6:13 *374:17 0.00674629
14 *6:13 *442:9 0.0224666
15 *6:13 *444:17 0.025417
16 *6:13 *622:17 0.0321259
*RES
1 io_in[14] *6:11 20.804 
2 *6:11 *6:13 957.736 
3 *6:13 *710:io_in[14] 12.664 
*END

*D_NET *7 0.257571
*CONN
*P io_in[15] I
*I *710:io_in[15] I *D caravel_if
*CAP
1 io_in[15] 0.00486962
2 *710:io_in[15] 0.00172882
3 *7:13 0.0175446
4 *7:11 0.0158157
5 *7:9 0.0969574
6 *7:7 0.101827
7 *710:io_in[15] *420:7 3.8713e-05
8 *710:io_in[15] *435:7 0.000150038
9 *7:13 *439:8 0.0186395
*RES
1 io_in[15] *7:7 45.32 
2 *7:7 *7:9 850.408 
3 *7:9 *7:11 4.5 
4 *7:11 *7:13 142.792 
5 *7:13 *710:io_in[15] 17.448 
*END

*D_NET *8 0.410794
*CONN
*P io_in[16] I
*I *710:io_in[16] I *D caravel_if
*CAP
1 io_in[16] 0.00716403
2 *710:io_in[16] 0.000771237
3 *8:13 0.00884199
4 *8:11 0.00807076
5 *8:9 0.0563657
6 *8:7 0.0563657
7 *8:5 0.00716403
8 *710:io_in[16] *710:out[8] 6.26063e-05
9 *710:io_in[16] *56:17 0.000231693
10 *710:io_in[16] *411:7 0.000137771
11 *8:9 *87:13 0.192928
12 *8:9 *236:9 0
13 *8:9 *531:13 0.0107539
14 *8:9 *538:13 0
15 *8:9 *685:19 0.0314903
16 *8:9 *688:13 0
17 *8:13 *87:9 0.0304462
18 *8:13 *406:9 0
*RES
1 io_in[16] *8:5 59.54 
2 *8:5 *8:7 4.5 
3 *8:7 *8:9 894.504 
4 *8:9 *8:11 4.5 
5 *8:11 *8:13 95.368 
6 *8:13 *710:io_in[16] 10.376 
*END

*D_NET *9 0.281848
*CONN
*P io_in[17] I
*I *710:io_in[17] I *D caravel_if
*CAP
1 io_in[17] 0.00418307
2 *710:io_in[17] 0.00159782
3 *9:13 0.00402395
4 *9:11 0.00242613
5 *9:9 0.0886368
6 *9:7 0.0928199
7 *710:io_in[17] *45:7 0.000120873
8 *9:13 *15:13 0.0426792
9 *9:13 *45:9 0.0448612
10 *9:13 *79:9 0.000114068
11 *9:13 *433:13 0.000384576
*RES
1 io_in[17] *9:7 39.08 
2 *9:7 *9:9 775.112 
3 *9:9 *9:11 4.5 
4 *9:11 *9:13 127.816 
5 *9:13 *710:io_in[17] 13.912 
*END

*D_NET *10 0.185815
*CONN
*P io_in[18] I
*I *710:io_in[18] I *D caravel_if
*CAP
1 io_in[18] 0.00383979
2 *710:io_in[18] 0.0013011
3 *10:13 0.00467782
4 *10:11 0.00337672
5 *10:9 0.055427
6 *10:7 0.0592668
7 *710:io_in[18] *208:5 0.000265551
8 *710:io_in[18] *223:11 8.23909e-05
9 *10:13 *48:9 0.0366625
10 *10:13 *445:13 0.0209152
*RES
1 io_in[18] *10:7 35.96 
2 *10:7 *10:9 484.328 
3 *10:9 *10:11 4.5 
4 *10:11 *10:13 95.992 
5 *10:13 *710:io_in[18] 14.744 
*END

*D_NET *11 0.244922
*CONN
*P io_in[19] I
*I *710:io_in[19] I *D caravel_if
*CAP
1 io_in[19] 0.00692266
2 *710:io_in[19] 0.000407626
3 *11:13 0.00537569
4 *11:11 0.00496807
5 *11:9 0.0378089
6 *11:7 0.0378089
7 *11:5 0.00692266
8 *710:io_in[19] *231:7 5.72162e-05
9 *11:9 *85:13 0.124161
10 *11:9 *538:13 0
11 *11:9 *686:19 0.0107556
12 *11:13 *710:out[1] 0.00939421
13 *11:13 *80:11 0.000338919
14 *11:13 *361:13 0
*RES
1 io_in[19] *11:5 56.42 
2 *11:5 *11:7 4.5 
3 *11:7 *11:9 522.6 
4 *11:9 *11:11 4.5 
5 *11:11 *11:13 46.072 
6 *11:13 *710:io_in[19] 7.256 
*END

*D_NET *12 0.661512
*CONN
*P io_in[1] I
*I *710:io_in[1] I *D caravel_if
*CAP
1 io_in[1] 0.00235876
2 *710:io_in[1] 0.00332587
3 *12:13 0.0593806
4 *12:11 0.0560547
5 *12:9 0.0905415
6 *12:7 0.0929003
7 *710:io_in[1] *710:la_data_in[26] 9.30457e-05
8 *710:io_in[1] *710:la_data_in[3] 0.000136852
9 *710:io_in[1] *143:17 0.00453428
10 *12:9 user_irq[2] 0
11 *12:13 io_out[11] 0.352186
*RES
1 io_in[1] *12:7 23.48 
2 *12:7 *12:9 760.76 
3 *12:9 *12:11 4.5 
4 *12:11 *12:13 892.008 
5 *12:13 *710:io_in[1] 40.744 
*END

*D_NET *13 0.249095
*CONN
*P io_in[20] I
*I *710:io_in[20] I *D caravel_if
*CAP
1 io_in[20] 0.00106383
2 *710:io_in[20] 0.000208339
3 *13:17 0.00685411
4 *13:15 0.00664577
5 *13:13 0.0277924
6 *13:11 0.0277924
7 *13:9 0.00711313
8 *13:7 0.00817696
9 *710:io_in[20] *710:io_in[23] 2.63375e-05
10 *710:io_in[20] *431:5 2.94203e-05
11 *13:9 *49:14 0.0478632
12 *13:17 *44:9 0.0368749
13 *13:17 *46:9 0.0765226
14 *13:17 *82:9 0.00213176
*RES
1 io_in[20] *13:7 13.496 
2 *13:7 *13:9 120.328 
3 *13:9 *13:11 4.5 
4 *13:11 *13:13 214.76 
5 *13:13 *13:15 4.5 
6 *13:15 *13:17 195.624 
7 *13:17 *710:io_in[20] 6.008 
*END

*D_NET *14 0.098759
*CONN
*P io_in[21] I
*I *710:io_in[21] I *D caravel_if
*CAP
1 io_in[21] 0.00310423
2 *710:io_in[21] 0.00086487
3 *14:13 0.00658563
4 *14:9 0.0248261
5 *14:7 0.0222096
6 *710:io_in[21] *710:io_in[5] 6.15537e-06
7 *710:io_in[21] *103:7 8.54693e-06
8 *710:io_in[21] *193:9 0.00259421
9 *710:io_in[21] *225:15 0.000134076
10 *710:io_in[21] *315:13 0.00149645
11 *710:io_in[21] *424:11 0.000425766
12 *14:9 *47:13 0.0363255
13 *14:13 *206:7 0.000177965
*RES
1 io_in[21] *14:7 29.512 
2 *14:7 *14:9 212.472 
3 *14:9 *14:13 49.324 
4 *14:13 *710:io_in[21] 22.468 
*END

*D_NET *15 0.119112
*CONN
*P io_in[22] I
*I *710:io_in[22] I *D caravel_if
*CAP
1 io_in[22] 0.0047931
2 *710:io_in[22] 0.00134606
3 *15:13 0.00491668
4 *15:11 0.00357062
5 *15:9 0.0185423
6 *15:7 0.0185423
7 *15:5 0.0047931
8 *710:io_in[22] *202:7 0.000194714
9 *710:io_in[22] *240:7 0.000197736
10 *15:5 *54:9 0.0060976
11 *15:13 *357:13 4.7944e-05
12 *15:13 *433:13 0.0133909
13 *9:13 *15:13 0.0426792
*RES
1 io_in[22] *15:5 47.06 
2 *15:5 *15:7 4.5 
3 *15:7 *15:9 160.68 
4 *15:9 *15:11 4.5 
5 *15:11 *15:13 111.592 
6 *15:13 *710:io_in[22] 14.12 
*END

*D_NET *16 0.0724497
*CONN
*P io_in[23] I
*I *710:io_in[23] I *D caravel_if
*CAP
1 io_in[23] 0.00284556
2 *710:io_in[23] 0.00199379
3 *16:13 0.027337
4 *16:11 0.0281887
5 *710:io_in[23] *17:13 0.000340047
6 *710:io_in[23] *44:9 0.0034831
7 *710:io_in[23] *82:9 0.0029664
8 *710:io_in[23] *94:6 0
9 *710:io_in[23] *209:11 3.04295e-05
10 *710:io_in[23] *435:13 0.00387892
11 *16:11 *90:9 0.00135942
12 *710:io_in[20] *710:io_in[23] 2.63375e-05
*RES
1 io_in[23] *16:11 35.78 
2 *16:11 *16:13 214.968 
3 *16:13 *710:io_in[23] 47.844 
*END

*D_NET *17 0.150796
*CONN
*P io_in[24] I
*I *710:io_in[24] I *D caravel_if
*CAP
1 io_in[24] 0.00162042
2 *710:io_in[24] 0.000174732
3 *17:13 0.0114139
4 *17:11 0.0112392
5 *17:9 0.00832391
6 *17:7 0.00994433
7 *710:io_in[24] *710:io_in[7] 2.90802e-05
8 *710:io_in[24] *427:7 1.50437e-05
9 *17:9 *59:13 0.0246895
10 *17:9 *67:13 0.0591501
11 *17:9 *351:13 3.83202e-05
12 *17:13 io_oeb[26] 0
13 *17:13 *19:13 0.0215286
14 *17:13 *94:6 0.00228843
15 *17:13 *101:13 0
16 *17:13 *435:13 0
17 *710:io_in[23] *17:13 0.000340047
*RES
1 io_in[24] *17:7 18.072 
2 *17:7 *17:9 207.688 
3 *17:9 *17:11 4.5 
4 *17:11 *17:13 111.384 
5 *17:13 *710:io_in[24] 5.8 
*END

*D_NET *18 0.0939558
*CONN
*P io_in[25] I
*I *710:io_in[25] I *D caravel_if
*CAP
1 io_in[25] 0.00315245
2 *710:io_in[25] 0.000898019